ver_1.2
     RDKit          3D

 18 20  0  0  0  0  0  0  0  0999 V2000
    3.3414    2.0751   -1.1931 O   0  0  0  0  0  0  0  0  0  0  0  0
    3.5322    0.7596   -1.6702 C   0  0  0  0  0  0  0  0  0  0  0  0
    3.3612   -0.2367   -0.5153 C   0  0  0  0  0  0  0  0  0  0  0  0
    4.3478    0.0097    0.5846 C   0  0  0  0  0  0  0  0  0  0  0  0
    3.4796    0.1187    1.8435 C   0  0  0  0  0  0  0  0  0  0  0  0
    2.2054   -0.6175    1.4564 C   0  0  0  0  0  0  0  0  0  0  0  0
    1.9681   -0.0031    0.0786 C   0  0  0  0  0  0  0  0  0  0  0  0
    0.9658   -0.6998   -0.6589 N   0  0  0  0  0  0  0  0  0  0  0  0
   -0.4047   -0.5484   -0.3529 C   0  0  0  0  0  0  0  0  0  0  0  0
   -1.1511   -1.3609   -1.1972 C   0  0  0  0  0  0  0  0  0  0  0  0
   -2.5236   -1.3716   -1.0827 C   0  0  0  0  0  0  0  0  0  0  0  0
   -3.2110   -0.6130   -0.1669 C   0  0  0  0  0  0  0  0  0  0  0  0
   -4.5036   -0.4297    0.1585 N   0  0  0  0  0  0  0  0  0  0  0  0
   -4.5222    0.4663    1.1668 C   0  0  0  0  0  0  0  0  0  0  0  0
   -3.2657    0.8471    1.4785 N   0  0  0  0  0  0  0  0  0  0  0  0
   -2.4561    0.1880    0.6632 C   0  0  0  0  0  0  0  0  0  0  0  0
   -1.0940    0.2092    0.5612 C   0  0  0  0  0  0  0  0  0  0  0  0
   -0.0695    1.2071    1.5645 Cl  0  0  0  0  0  0  0  0  0  0  0  0
  1  2  1  0
  2  3  1  0
  3  4  1  0
  4  5  1  0
  5  6  1  0
  6  7  1  0
  7  8  1  0
  8  9  1  0
  9 10  2  0
 10 11  1  0
 11 12  2  0
 12 13  1  0
 13 14  1  0
 14 15  2  0
 15 16  1  0
 16 17  2  0
 17 18  1  0
  7  3  1  0
 17  9  1  0
 16 12  1  0
M  END
>  <ref_url>  (1) 
https://hippo.winokan.com

>  <submitter_name>  (1) 
Max Winokan

>  <submitter_email>  (1) 
max.winokan@diamond.ac.uk

>  <submitter_institution>  (1) 
DLS

>  <generation_date>  (1) 
2024-09-24

>  <method>  (1) 
Fragmenstein pure

>  <exports>  (1) 
exports

>  <smiles>  (1) 
smiles

>  <ref_mols>  (1) 
fragment inspirations

>  <original ID>  (1) 
original ID

$$$$
WHLDZOYDHAHKLT-IUCAKERBSA-N
     RDKit          3D

 18 20  0  0  0  0  0  0  0  0999 V2000
   11.1777    6.9054   13.2073 O   0  0  0  0  0  0  0  0  0  0  0  0
   11.9524    5.9986   12.4290 C   0  0  0  0  0  0  0  0  0  0  0  0
   13.1594    5.3898   13.1723 C   0  0  2  0  0  0  0  0  0  0  0  0
   12.6256    4.9628   14.5134 C   0  0  0  0  0  0  0  0  0  0  0  0
   12.8705    6.1288   15.5051 C   0  0  0  0  0  0  0  0  0  0  0  0
   13.8474    7.0485   14.8149 C   0  0  0  0  0  0  0  0  0  0  0  0
   14.3739    6.1288   13.7498 C   0  0  2  0  0  0  0  0  0  0  0  0
   15.3584    6.6727   12.8646 N   0  0  0  0  0  0  0  0  0  0  0  0
   14.8513    7.5625   11.9366 C   0  0  0  0  0  0  0  0  0  0  0  0
   14.3945    7.0067   10.7324 C   0  0  0  0  0  0  0  0  0  0  0  0
   13.9450    7.7824    9.7015 C   0  0  0  0  0  0  0  0  0  0  0  0
   14.3093    9.0848    9.8631 C   0  0  0  0  0  0  0  0  0  0  0  0
   14.4685   10.0253    8.9255 N   0  0  0  0  0  0  0  0  0  0  0  0
   15.3115   10.8804    9.5197 C   0  0  0  0  0  0  0  0  0  0  0  0
   15.0865   10.9839   10.7951 N   0  0  0  0  0  0  0  0  0  0  0  0
   14.7312    9.7001   11.0369 C   0  0  0  0  0  0  0  0  0  0  0  0
   14.8132    8.9376   12.1794 C   0  0  0  0  0  0  0  0  0  0  0  0
   15.1621    9.7831   13.6176 Cl  0  0  0  0  0  0  0  0  0  0  0  0
  1  2  1  0
  3  2  1  1
  3  4  1  0
  4  5  1  0
  5  6  1  0
  6  7  1  0
  7  8  1  6
  8  9  1  0
  9 10  2  0
 10 11  1  0
 11 12  2  0
 12 13  1  0
 13 14  1  0
 14 15  2  0
 15 16  1  0
 16 17  2  0
 17 18  1  0
  7  3  1  0
 17  9  1  0
 16 12  1  0
M  END
>  <submitter_email>  (1) 
None

>  <original ID>  (1) 
WHLDZOYDHAHKLT-IUCAKERBSA-N

>  <exports>  (1) 
['/opt/xchem-fragalysis-2/maxwin/CHIKV_HIPPO/hippo_prod/syndirella_scaffolds_79.sdf']

>  <ref_url>  (1) 
None

>  <ref_mols>  (1) 
c0406a,c0894a

>  <alias>  (1) 
None

>  <inchikey>  (1) 
WHLDZOYDHAHKLT-IUCAKERBSA-N

>  <HIPPO ID>  (1) 
6228

>  <ref_pdb>  (1) 
c0300a

>  <generation_date>  (1) 
None

>  <submitter_name>  (1) 
None

>  <method>  (1) 
None

>  <tags>  (1) 
['Syndirella base']

>  <original SMILES>  (1) 
OC[C@@H]1CCC[C@@H]1Nc1ccc2[nH]cnc2c1Cl

$$$$
WHLDZOYDHAHKLT-BDAKNGLRSA-N
     RDKit          3D

 18 20  0  0  0  0  0  0  0  0999 V2000
   10.3191    6.1975   13.3159 O   0  0  0  0  0  0  0  0  0  0  0  0
   11.6332    5.6555   13.3691 C   0  0  0  0  0  0  0  0  0  0  0  0
   12.5350    6.6230   14.1293 C   0  0  1  0  0  0  0  0  0  0  0  0
   12.1260    6.8736   15.5794 C   0  0  0  0  0  0  0  0  0  0  0  0
   13.4078    6.8016   16.3978 C   0  0  0  0  0  0  0  0  0  0  0  0
   14.3217    5.8791   15.6191 C   0  0  0  0  0  0  0  0  0  0  0  0
   14.0130    6.1917   14.1655 C   0  0  2  0  0  0  0  0  0  0  0  0
   14.8842    7.2893   13.7485 N   0  0  0  0  0  0  0  0  0  0  0  0
   14.6667    7.7974   12.4674 C   0  0  0  0  0  0  0  0  0  0  0  0
   14.3191    6.9175   11.4372 C   0  0  0  0  0  0  0  0  0  0  0  0
   14.0465    7.3527   10.1681 C   0  0  0  0  0  0  0  0  0  0  0  0
   14.3628    8.6656    9.9415 C   0  0  0  0  0  0  0  0  0  0  0  0
   14.3671    9.3252    8.7737 N   0  0  0  0  0  0  0  0  0  0  0  0
   15.1235   10.4146    8.9960 C   0  0  0  0  0  0  0  0  0  0  0  0
   15.1056   10.7714   10.2550 N   0  0  0  0  0  0  0  0  0  0  0  0
   14.7889    9.5939   10.8785 C   0  0  0  0  0  0  0  0  0  0  0  0
   14.8371    9.1685   12.2023 C   0  0  0  0  0  0  0  0  0  0  0  0
   15.0779   10.3590   13.4017 Cl  0  0  0  0  0  0  0  0  0  0  0  0
  1  2  1  0
  3  2  1  1
  3  4  1  0
  4  5  1  0
  5  6  1  0
  6  7  1  0
  7  8  1  1
  8  9  1  0
  9 10  2  0
 10 11  1  0
 11 12  2  0
 12 13  1  0
 13 14  1  0
 14 15  2  0
 15 16  1  0
 16 17  2  0
 17 18  1  0
  7  3  1  0
 17  9  1  0
 16 12  1  0
M  END
>  <submitter_email>  (2) 
None

>  <original ID>  (2) 
WHLDZOYDHAHKLT-BDAKNGLRSA-N

>  <exports>  (2) 
['/opt/xchem-fragalysis-2/maxwin/CHIKV_HIPPO/hippo_prod/syndirella_scaffolds_79.sdf']

>  <ref_url>  (2) 
None

>  <ref_mols>  (2) 
c0406a,c0894a

>  <alias>  (2) 
None

>  <inchikey>  (2) 
WHLDZOYDHAHKLT-BDAKNGLRSA-N

>  <HIPPO ID>  (2) 
6229

>  <ref_pdb>  (2) 
c0300a

>  <generation_date>  (2) 
None

>  <submitter_name>  (2) 
None

>  <method>  (2) 
None

>  <tags>  (2) 
['Syndirella base']

>  <original SMILES>  (2) 
OC[C@H]1CCC[C@@H]1Nc1ccc2[nH]cnc2c1Cl

$$$$
WHLDZOYDHAHKLT-DTWKUNHWSA-N
     RDKit          3D

 18 20  0  0  0  0  0  0  0  0999 V2000
   10.5847    6.3111   14.7568 O   0  0  0  0  0  0  0  0  0  0  0  0
   11.1392    6.2886   13.4571 C   0  0  0  0  0  0  0  0  0  0  0  0
   12.6682    6.2957   13.4888 C   0  0  2  0  0  0  0  0  0  0  0  0
   13.2515    4.9306   13.8754 C   0  0  0  0  0  0  0  0  0  0  0  0
   14.2883    5.1885   14.9575 C   0  0  0  0  0  0  0  0  0  0  0  0
   13.7618    6.4305   15.6499 C   0  0  0  0  0  0  0  0  0  0  0  0
   13.3188    7.3052   14.4752 C   0  0  1  0  0  0  0  0  0  0  0  0
   14.5613    7.9989   14.0651 N   0  0  0  0  0  0  0  0  0  0  0  0
   14.7853    8.3025   12.7356 C   0  0  0  0  0  0  0  0  0  0  0  0
   14.8791    7.2383   11.8462 C   0  0  0  0  0  0  0  0  0  0  0  0
   14.6522    7.4038   10.5095 C   0  0  0  0  0  0  0  0  0  0  0  0
   14.6697    8.7044   10.0912 C   0  0  0  0  0  0  0  0  0  0  0  0
   14.5844    9.1627    8.8335 N   0  0  0  0  0  0  0  0  0  0  0  0
   15.1044   10.4006    8.8876 C   0  0  0  0  0  0  0  0  0  0  0  0
   15.0107   10.9308   10.0834 N   0  0  0  0  0  0  0  0  0  0  0  0
   14.8466    9.8285   10.8831 C   0  0  0  0  0  0  0  0  0  0  0  0
   14.8343    9.6228   12.2618 C   0  0  0  0  0  0  0  0  0  0  0  0
   14.8607   10.9901   13.2691 Cl  0  0  0  0  0  0  0  0  0  0  0  0
  1  2  1  0
  3  2  1  1
  3  4  1  0
  4  5  1  0
  5  6  1  0
  6  7  1  0
  7  8  1  6
  8  9  1  0
  9 10  2  0
 10 11  1  0
 11 12  2  0
 12 13  1  0
 13 14  1  0
 14 15  2  0
 15 16  1  0
 16 17  2  0
 17 18  1  0
  7  3  1  0
 17  9  1  0
 16 12  1  0
M  END
>  <submitter_email>  (3) 
None

>  <original ID>  (3) 
WHLDZOYDHAHKLT-DTWKUNHWSA-N

>  <exports>  (3) 
['/opt/xchem-fragalysis-2/maxwin/CHIKV_HIPPO/hippo_prod/syndirella_scaffolds_79.sdf']

>  <ref_url>  (3) 
None

>  <ref_mols>  (3) 
c0406a,c0894a

>  <alias>  (3) 
None

>  <inchikey>  (3) 
WHLDZOYDHAHKLT-DTWKUNHWSA-N

>  <HIPPO ID>  (3) 
6230

>  <ref_pdb>  (3) 
c0300a

>  <generation_date>  (3) 
None

>  <submitter_name>  (3) 
None

>  <method>  (3) 
None

>  <tags>  (3) 
['Syndirella base']

>  <original SMILES>  (3) 
OC[C@@H]1CCC[C@H]1Nc1ccc2[nH]cnc2c1Cl

$$$$
WHLDZOYDHAHKLT-RKDXNWHRSA-N
     RDKit          3D

 18 20  0  0  0  0  0  0  0  0999 V2000
   10.5074    6.4801   13.8143 O   0  0  0  0  0  0  0  0  0  0  0  0
   11.8695    6.0722   13.7059 C   0  0  0  0  0  0  0  0  0  0  0  0
   12.7400    7.0121   14.5541 C   0  0  1  0  0  0  0  0  0  0  0  0
   12.4510    6.8907   16.0588 C   0  0  0  0  0  0  0  0  0  0  0  0
   13.6806    6.2188   16.6872 C   0  0  0  0  0  0  0  0  0  0  0  0
   14.4936    5.6898   15.5193 C   0  0  0  0  0  0  0  0  0  0  0  0
   14.2547    6.7880   14.5065 C   0  0  1  0  0  0  0  0  0  0  0  0
   14.7865    6.4438   13.2193 N   0  0  0  0  0  0  0  0  0  0  0  0
   14.5661    7.3527   12.1866 C   0  0  0  0  0  0  0  0  0  0  0  0
   14.0983    6.7733   10.9965 C   0  0  0  0  0  0  0  0  0  0  0  0
   13.8742    7.5035    9.8543 C   0  0  0  0  0  0  0  0  0  0  0  0
   14.3169    8.7975    9.9156 C   0  0  0  0  0  0  0  0  0  0  0  0
   14.4654    9.6978    8.9292 N   0  0  0  0  0  0  0  0  0  0  0  0
   15.2541   10.6484    9.4535 C   0  0  0  0  0  0  0  0  0  0  0  0
   15.1270   10.7284   10.7481 N   0  0  0  0  0  0  0  0  0  0  0  0
   14.7553    9.4524   11.0547 C   0  0  0  0  0  0  0  0  0  0  0  0
   14.7756    8.7448   12.2518 C   0  0  0  0  0  0  0  0  0  0  0  0
   15.1150    9.7320   13.6087 Cl  0  0  0  0  0  0  0  0  0  0  0  0
  1  2  1  0
  3  2  1  6
  3  4  1  0
  4  5  1  0
  5  6  1  0
  6  7  1  0
  7  8  1  6
  8  9  1  0
  9 10  2  0
 10 11  1  0
 11 12  2  0
 12 13  1  0
 13 14  1  0
 14 15  2  0
 15 16  1  0
 16 17  2  0
 17 18  1  0
  7  3  1  0
 17  9  1  0
 16 12  1  0
M  END
>  <submitter_email>  (4) 
None

>  <original ID>  (4) 
WHLDZOYDHAHKLT-RKDXNWHRSA-N

>  <exports>  (4) 
['/opt/xchem-fragalysis-2/maxwin/CHIKV_HIPPO/hippo_prod/syndirella_scaffolds_79.sdf']

>  <ref_url>  (4) 
None

>  <ref_mols>  (4) 
c0406a,c0894a

>  <alias>  (4) 
None

>  <inchikey>  (4) 
WHLDZOYDHAHKLT-RKDXNWHRSA-N

>  <HIPPO ID>  (4) 
6231

>  <ref_pdb>  (4) 
c0300a

>  <generation_date>  (4) 
None

>  <submitter_name>  (4) 
None

>  <method>  (4) 
None

>  <tags>  (4) 
['Syndirella base']

>  <original SMILES>  (4) 
OC[C@H]1CCC[C@H]1Nc1ccc2[nH]cnc2c1Cl

$$$$
