ver_1.2
     RDKit          3D

 20 21  0  0  0  0  0  0  0  0999 V2000
    5.8335    1.2651   -1.5113 N   0  0  0  0  0  0  0  0  0  0  0  0
    5.1693    0.0413   -1.2210 C   0  0  0  0  0  0  0  0  0  0  0  0
    5.7517   -1.0665   -1.3181 O   0  0  0  0  0  0  0  0  0  0  0  0
    3.7759    0.1618   -0.8056 C   0  0  0  0  0  0  0  0  0  0  0  0
    3.1023    1.3731   -0.6908 C   0  0  0  0  0  0  0  0  0  0  0  0
    1.7778    1.4075   -0.2890 C   0  0  0  0  0  0  0  0  0  0  0  0
    1.1158    0.2100    0.0028 C   0  0  0  0  0  0  0  0  0  0  0  0
   -0.2903    0.3953    0.4195 C   0  0  0  0  0  0  0  0  0  0  0  0
   -0.8711    0.9827    1.3653 O   0  0  0  0  0  0  0  0  0  0  0  0
   -1.3502   -0.1570   -0.3142 N   0  0  0  0  0  0  0  0  0  0  0  0
   -2.7441   -0.0649   -0.0393 C   0  0  0  0  0  0  0  0  0  0  0  0
   -3.1231    0.7075    1.1775 C   0  0  0  0  0  0  0  0  0  0  0  0
   -4.4146    0.0944    1.7194 C   0  0  0  0  0  0  0  0  0  0  0  0
   -5.4148   -0.0476    0.6025 C   0  0  0  0  0  0  0  0  0  0  0  0
   -5.8532    1.1206    0.8461 O   0  0  0  0  0  0  0  0  0  0  0  0
   -4.6851   -1.2775    0.6224 N   0  0  0  0  0  0  0  0  0  0  0  0
   -3.5109   -1.3549   -0.2265 C   0  0  0  0  0  0  0  0  0  0  0  0
    1.7743   -0.9992   -0.1076 C   0  0  0  0  0  0  0  0  0  0  0  0
    0.8585   -2.4316    0.2789 Cl  0  0  0  0  0  0  0  0  0  0  0  0
    3.0983   -1.0112   -0.5109 C   0  0  0  0  0  0  0  0  0  0  0  0
  1  2  1  0
  2  3  2  0
  2  4  1  0
  4  5  2  0
  5  6  1  0
  6  7  2  0
  7  8  1  0
  8  9  2  0
  8 10  1  0
 10 11  1  0
 11 12  1  0
 12 13  1  0
 13 14  1  0
 14 15  2  0
 14 16  1  0
 16 17  1  0
  7 18  1  0
 18 19  1  0
 18 20  2  0
 20  4  1  0
 17 11  1  0
M  END
>  <ref_url>  (1) 
https://hippo.winokan.com

>  <submitter_name>  (1) 
Max Winokan

>  <submitter_email>  (1) 
max.winokan@diamond.ac.uk

>  <submitter_institution>  (1) 
DLS

>  <generation_date>  (1) 
2024-09-23

>  <method>  (1) 
Various

>  <smiles>  (1) 
smiles

>  <ref_mols>  (1) 
fragment inspirations

>  <original ID>  (1) 
original ID

$$$$
SMVDAYWKXWVCAN-MRVPVSSYSA-N
     RDKit          3D

 20 21  0  0  0  0  0  0  0  0999 V2000
   14.2927   12.7878   11.9777 N   0  0  0  0  0  0  0  0  0  0  0  0
   14.5946   11.5784   11.4176 C   0  0  0  0  0  0  0  0  0  0  0  0
   14.7075   11.4772   10.2019 O   0  0  0  0  0  0  0  0  0  0  0  0
   14.7582   10.3878   12.3151 C   0  0  0  0  0  0  0  0  0  0  0  0
   14.7853    9.1113   11.7307 C   0  0  0  0  0  0  0  0  0  0  0  0
   14.8272    7.9437   12.5138 C   0  0  0  0  0  0  0  0  0  0  0  0
   14.8851    8.0223   13.9113 C   0  0  0  0  0  0  0  0  0  0  0  0
   14.8765    6.7327   14.6775 C   0  0  0  0  0  0  0  0  0  0  0  0
   14.0793    6.5200   15.5801 O   0  0  0  0  0  0  0  0  0  0  0  0
   15.7671    5.7964   14.2013 N   0  0  0  0  0  0  0  0  0  0  0  0
   15.6265    4.3496   14.4155 C   0  0  2  0  0  0  0  0  0  0  0  0
   16.9341    3.7468   14.9192 C   0  0  0  0  0  0  0  0  0  0  0  0
   18.0751    3.8977   13.9146 C   0  0  0  0  0  0  0  0  0  0  0  0
   17.6831    4.0385   12.4539 C   0  0  0  0  0  0  0  0  0  0  0  0
   18.5084    4.3494   11.5937 O   0  0  0  0  0  0  0  0  0  0  0  0
   16.3660    3.9391   12.1171 N   0  0  0  0  0  0  0  0  0  0  0  0
   15.3127    3.6635   13.0778 C   0  0  0  0  0  0  0  0  0  0  0  0
   14.8912    9.2951   14.4942 C   0  0  0  0  0  0  0  0  0  0  0  0
   14.9999    9.5286   16.1902 Cl  0  0  0  0  0  0  0  0  0  0  0  0
   14.8311   10.4666   13.7038 C   0  0  0  0  0  0  0  0  0  0  0  0
  1  2  1  0
  2  3  2  0
  2  4  1  0
  4  5  2  0
  5  6  1  0
  6  7  2  0
  7  8  1  0
  8  9  2  0
  8 10  1  0
 11 10  1  6
 11 12  1  0
 12 13  1  0
 13 14  1  0
 14 15  2  0
 14 16  1  0
 16 17  1  0
  7 18  1  0
 18 19  1  0
 18 20  2  0
 20  4  1  0
 17 11  1  0
M  END
>  <submitter_email>  (1) 
None

>  <original ID>  (1) 
SMVDAYWKXWVCAN-MRVPVSSYSA-N

>  <ref_url>  (1) 
None

>  <ref_mols>  (1) 
cx1371a,c0300a,c1371a

>  <alias>  (1) 
None

>  <inchikey>  (1) 
SMVDAYWKXWVCAN-MRVPVSSYSA-N

>  <HIPPO ID>  (1) 
6225

>  <ref_pdb>  (1) 
c0300a

>  <generation_date>  (1) 
None

>  <submitter_name>  (1) 
None

>  <method>  (1) 
None

>  <tags>  (1) 
['Syndirella base']

>  <original SMILES>  (1) 
NC(=O)c1ccc(C(=O)N[C@@H]2CCC(=O)NC2)c(Cl)c1

$$$$
MNLAWAQYKQVGLK-UHFFFAOYSA-N
     RDKit          3D

 21 22  0  0  0  0  0  0  0  0999 V2000
   19.0167    1.9289   15.5795 C   0  0  0  0  0  0  0  0  0  0  0  0
   17.6192    1.9334   15.9786 N   0  0  0  0  0  0  0  0  0  0  0  0
   16.8425    3.1376   15.6898 C   0  0  0  0  0  0  0  0  0  0  0  0
   16.5929    3.3887   14.2239 C   0  0  0  0  0  0  0  0  0  0  0  0
   15.2957    3.3898   13.7207 C   0  0  0  0  0  0  0  0  0  0  0  0
   15.0864    3.7484   12.3895 C   0  0  0  0  0  0  0  0  0  0  0  0
   16.1688    4.0602   11.5889 C   0  0  0  0  0  0  0  0  0  0  0  0
   17.4034    3.9987   12.1804 C   0  0  0  0  0  0  0  0  0  0  0  0
   18.5371    4.2041   11.4812 O   0  0  0  0  0  0  0  0  0  0  0  0
   17.6646    3.6950   13.4539 N   0  0  0  0  0  0  0  0  0  0  0  0
   16.9485    0.8573   16.5416 C   0  0  0  0  0  0  0  0  0  0  0  0
   15.7416    0.9079   16.7617 O   0  0  0  0  0  0  0  0  0  0  0  0
   17.7756   -0.3608   16.9460 C   0  0  0  0  0  0  0  0  0  0  0  0
   16.9215   -1.3578   17.4945 O   0  0  0  0  0  0  0  0  0  0  0  0
   17.5418   -2.3433   18.2009 C   0  0  0  0  0  0  0  0  0  0  0  0
   16.8452   -2.8263   19.3097 C   0  0  0  0  0  0  0  0  0  0  0  0
   17.3637   -3.8788   20.0658 C   0  0  0  0  0  0  0  0  0  0  0  0
   18.5596   -4.4793   19.6875 C   0  0  0  0  0  0  0  0  0  0  0  0
   19.2310   -4.0055   18.5678 C   0  0  0  0  0  0  0  0  0  0  0  0
   20.3420   -4.6289   18.1561 F   0  0  0  0  0  0  0  0  0  0  0  0
   18.7480   -2.9285   17.8311 C   0  0  0  0  0  0  0  0  0  0  0  0
  1  2  1  0
  2  3  1  0
  3  4  1  0
  4  5  2  0
  5  6  1  0
  6  7  2  0
  7  8  1  0
  8  9  1  0
  8 10  2  0
  2 11  1  0
 11 12  2  0
 11 13  1  0
 13 14  1  0
 14 15  1  0
 15 16  2  0
 16 17  1  0
 17 18  2  0
 18 19  1  0
 19 20  1  0
 19 21  2  0
 10  4  1  0
 21 15  1  0
M  END
>  <submitter_email>  (2) 
None

>  <original ID>  (2) 
MNLAWAQYKQVGLK-UHFFFAOYSA-N

>  <ref_url>  (2) 
None

>  <ref_mols>  (2) 
cx1118a,c0540a,c1118a

>  <alias>  (2) 
None

>  <inchikey>  (2) 
MNLAWAQYKQVGLK-UHFFFAOYSA-N

>  <HIPPO ID>  (2) 
6226

>  <ref_pdb>  (2) 
c0300a

>  <generation_date>  (2) 
None

>  <submitter_name>  (2) 
None

>  <method>  (2) 
None

>  <tags>  (2) 
['Syndirella base']

>  <original SMILES>  (2) 
CN(Cc1cccc(O)n1)C(=O)COc1cccc(F)c1

$$$$
FCGOSHSMTQLVEX-UHFFFAOYSA-N
     RDKit          3D

 21 22  0  0  0  0  0  0  0  0999 V2000
   20.3729    1.4335   16.0565 C   0  0  0  0  0  0  0  0  0  0  0  0
   19.3228    0.5549   16.7098 C   0  0  0  0  0  0  0  0  0  0  0  0
   18.1125    1.3008   16.8495 O   0  0  0  0  0  0  0  0  0  0  0  0
   17.0887    0.5803   17.4286 C   0  0  0  0  0  0  0  0  0  0  0  0
   17.2775   -0.7558   17.6021 N   0  0  0  0  0  0  0  0  0  0  0  0
   16.2851   -1.4330   18.2170 C   0  0  0  0  0  0  0  0  0  0  0  0
   15.1187   -0.8453   18.6686 C   0  0  0  0  0  0  0  0  0  0  0  0
   14.9349    0.5161   18.4619 C   0  0  0  0  0  0  0  0  0  0  0  0
   15.9273    1.2493   17.8123 C   0  0  0  0  0  0  0  0  0  0  0  0
   15.7310    2.7067   17.6754 C   0  0  0  0  0  0  0  0  0  0  0  0
   15.4825    3.3412   18.7020 O   0  0  0  0  0  0  0  0  0  0  0  0
   15.7898    3.3258   16.4240 N   0  0  0  0  0  0  0  0  0  0  0  0
   15.6209    4.7732   16.3937 C   0  0  0  0  0  0  0  0  0  0  0  0
   15.4602    2.6017   15.2001 C   0  0  0  0  0  0  0  0  0  0  0  0
   16.2426    3.0699   14.0308 C   0  0  0  0  0  0  0  0  0  0  0  0
   15.6451    3.5823   12.8761 C   0  0  0  0  0  0  0  0  0  0  0  0
   16.4548    4.0488   11.8640 C   0  0  0  0  0  0  0  0  0  0  0  0
   17.8056    3.9412   12.0824 C   0  0  0  0  0  0  0  0  0  0  0  0
   18.7021    4.2822   11.1531 O   0  0  0  0  0  0  0  0  0  0  0  0
   18.4275    3.4488   13.1464 N   0  0  0  0  0  0  0  0  0  0  0  0
   17.6211    3.0253   14.1131 C   0  0  0  0  0  0  0  0  0  0  0  0
  1  2  1  0
  2  3  1  0
  3  4  1  0
  4  5  2  0
  5  6  1  0
  6  7  2  0
  7  8  1  0
  8  9  2  0
  9 10  1  0
 10 11  2  0
 10 12  1  0
 12 13  1  0
 12 14  1  0
 14 15  1  0
 15 16  2  0
 16 17  1  0
 17 18  2  0
 18 19  1  0
 18 20  1  0
 20 21  2  0
  9  4  1  0
 21 15  1  0
M  END
>  <submitter_email>  (3) 
None

>  <original ID>  (3) 
FCGOSHSMTQLVEX-UHFFFAOYSA-N

>  <ref_url>  (3) 
None

>  <ref_mols>  (3) 
cx0522a,cx1118a,c0522a,c1118a

>  <alias>  (3) 
None

>  <inchikey>  (3) 
FCGOSHSMTQLVEX-UHFFFAOYSA-N

>  <HIPPO ID>  (3) 
6227

>  <ref_pdb>  (3) 
c0300a

>  <generation_date>  (3) 
None

>  <submitter_name>  (3) 
None

>  <method>  (3) 
None

>  <tags>  (3) 
['Syndirella base']

>  <original SMILES>  (3) 
CCOc1ncccc1C(=O)N(C)Cc1ccc(O)nc1

$$$$
WHLDZOYDHAHKLT-IUCAKERBSA-N
     RDKit          3D

 18 20  0  0  0  0  0  0  0  0999 V2000
   11.1777    6.9054   13.2073 O   0  0  0  0  0  0  0  0  0  0  0  0
   11.9524    5.9986   12.4290 C   0  0  0  0  0  0  0  0  0  0  0  0
   13.1594    5.3898   13.1723 C   0  0  2  0  0  0  0  0  0  0  0  0
   12.6256    4.9628   14.5134 C   0  0  0  0  0  0  0  0  0  0  0  0
   12.8705    6.1288   15.5051 C   0  0  0  0  0  0  0  0  0  0  0  0
   13.8474    7.0485   14.8149 C   0  0  0  0  0  0  0  0  0  0  0  0
   14.3739    6.1288   13.7498 C   0  0  2  0  0  0  0  0  0  0  0  0
   15.3584    6.6727   12.8646 N   0  0  0  0  0  0  0  0  0  0  0  0
   14.8513    7.5625   11.9366 C   0  0  0  0  0  0  0  0  0  0  0  0
   14.3945    7.0067   10.7324 C   0  0  0  0  0  0  0  0  0  0  0  0
   13.9450    7.7824    9.7015 C   0  0  0  0  0  0  0  0  0  0  0  0
   14.3093    9.0848    9.8631 C   0  0  0  0  0  0  0  0  0  0  0  0
   14.4685   10.0253    8.9255 N   0  0  0  0  0  0  0  0  0  0  0  0
   15.3115   10.8804    9.5197 C   0  0  0  0  0  0  0  0  0  0  0  0
   15.0865   10.9839   10.7951 N   0  0  0  0  0  0  0  0  0  0  0  0
   14.7312    9.7001   11.0369 C   0  0  0  0  0  0  0  0  0  0  0  0
   14.8132    8.9376   12.1794 C   0  0  0  0  0  0  0  0  0  0  0  0
   15.1621    9.7831   13.6176 Cl  0  0  0  0  0  0  0  0  0  0  0  0
  1  2  1  0
  3  2  1  1
  3  4  1  0
  4  5  1  0
  5  6  1  0
  6  7  1  0
  7  8  1  6
  8  9  1  0
  9 10  2  0
 10 11  1  0
 11 12  2  0
 12 13  1  0
 13 14  1  0
 14 15  2  0
 15 16  1  0
 16 17  2  0
 17 18  1  0
  7  3  1  0
 17  9  1  0
 16 12  1  0
M  END
>  <submitter_email>  (4) 
None

>  <original ID>  (4) 
WHLDZOYDHAHKLT-IUCAKERBSA-N

>  <ref_url>  (4) 
None

>  <ref_mols>  (4) 
c0406a,c0894a

>  <alias>  (4) 
None

>  <inchikey>  (4) 
WHLDZOYDHAHKLT-IUCAKERBSA-N

>  <HIPPO ID>  (4) 
6228

>  <ref_pdb>  (4) 
c0300a

>  <generation_date>  (4) 
None

>  <submitter_name>  (4) 
None

>  <method>  (4) 
None

>  <tags>  (4) 
['Syndirella base']

>  <original SMILES>  (4) 
OC[C@@H]1CCC[C@@H]1Nc1ccc2[nH]cnc2c1Cl

$$$$
WHLDZOYDHAHKLT-BDAKNGLRSA-N
     RDKit          3D

 18 20  0  0  0  0  0  0  0  0999 V2000
   10.3191    6.1975   13.3159 O   0  0  0  0  0  0  0  0  0  0  0  0
   11.6332    5.6555   13.3691 C   0  0  0  0  0  0  0  0  0  0  0  0
   12.5350    6.6230   14.1293 C   0  0  1  0  0  0  0  0  0  0  0  0
   12.1260    6.8736   15.5794 C   0  0  0  0  0  0  0  0  0  0  0  0
   13.4078    6.8016   16.3978 C   0  0  0  0  0  0  0  0  0  0  0  0
   14.3217    5.8791   15.6191 C   0  0  0  0  0  0  0  0  0  0  0  0
   14.0130    6.1917   14.1655 C   0  0  2  0  0  0  0  0  0  0  0  0
   14.8842    7.2893   13.7485 N   0  0  0  0  0  0  0  0  0  0  0  0
   14.6667    7.7974   12.4674 C   0  0  0  0  0  0  0  0  0  0  0  0
   14.3191    6.9175   11.4372 C   0  0  0  0  0  0  0  0  0  0  0  0
   14.0465    7.3527   10.1681 C   0  0  0  0  0  0  0  0  0  0  0  0
   14.3628    8.6656    9.9415 C   0  0  0  0  0  0  0  0  0  0  0  0
   14.3671    9.3252    8.7737 N   0  0  0  0  0  0  0  0  0  0  0  0
   15.1235   10.4146    8.9960 C   0  0  0  0  0  0  0  0  0  0  0  0
   15.1056   10.7714   10.2550 N   0  0  0  0  0  0  0  0  0  0  0  0
   14.7889    9.5939   10.8785 C   0  0  0  0  0  0  0  0  0  0  0  0
   14.8371    9.1685   12.2023 C   0  0  0  0  0  0  0  0  0  0  0  0
   15.0779   10.3590   13.4017 Cl  0  0  0  0  0  0  0  0  0  0  0  0
  1  2  1  0
  3  2  1  1
  3  4  1  0
  4  5  1  0
  5  6  1  0
  6  7  1  0
  7  8  1  1
  8  9  1  0
  9 10  2  0
 10 11  1  0
 11 12  2  0
 12 13  1  0
 13 14  1  0
 14 15  2  0
 15 16  1  0
 16 17  2  0
 17 18  1  0
  7  3  1  0
 17  9  1  0
 16 12  1  0
M  END
>  <submitter_email>  (5) 
None

>  <original ID>  (5) 
WHLDZOYDHAHKLT-BDAKNGLRSA-N

>  <ref_url>  (5) 
None

>  <ref_mols>  (5) 
c0406a,c0894a

>  <alias>  (5) 
None

>  <inchikey>  (5) 
WHLDZOYDHAHKLT-BDAKNGLRSA-N

>  <HIPPO ID>  (5) 
6229

>  <ref_pdb>  (5) 
c0300a

>  <generation_date>  (5) 
None

>  <submitter_name>  (5) 
None

>  <method>  (5) 
None

>  <tags>  (5) 
['Syndirella base']

>  <original SMILES>  (5) 
OC[C@H]1CCC[C@@H]1Nc1ccc2[nH]cnc2c1Cl

$$$$
WHLDZOYDHAHKLT-DTWKUNHWSA-N
     RDKit          3D

 18 20  0  0  0  0  0  0  0  0999 V2000
   10.5847    6.3111   14.7568 O   0  0  0  0  0  0  0  0  0  0  0  0
   11.1392    6.2886   13.4571 C   0  0  0  0  0  0  0  0  0  0  0  0
   12.6682    6.2957   13.4888 C   0  0  2  0  0  0  0  0  0  0  0  0
   13.2515    4.9306   13.8754 C   0  0  0  0  0  0  0  0  0  0  0  0
   14.2883    5.1885   14.9575 C   0  0  0  0  0  0  0  0  0  0  0  0
   13.7618    6.4305   15.6499 C   0  0  0  0  0  0  0  0  0  0  0  0
   13.3188    7.3052   14.4752 C   0  0  1  0  0  0  0  0  0  0  0  0
   14.5613    7.9989   14.0651 N   0  0  0  0  0  0  0  0  0  0  0  0
   14.7853    8.3025   12.7356 C   0  0  0  0  0  0  0  0  0  0  0  0
   14.8791    7.2383   11.8462 C   0  0  0  0  0  0  0  0  0  0  0  0
   14.6522    7.4038   10.5095 C   0  0  0  0  0  0  0  0  0  0  0  0
   14.6697    8.7044   10.0912 C   0  0  0  0  0  0  0  0  0  0  0  0
   14.5844    9.1627    8.8335 N   0  0  0  0  0  0  0  0  0  0  0  0
   15.1044   10.4006    8.8876 C   0  0  0  0  0  0  0  0  0  0  0  0
   15.0107   10.9308   10.0834 N   0  0  0  0  0  0  0  0  0  0  0  0
   14.8466    9.8285   10.8831 C   0  0  0  0  0  0  0  0  0  0  0  0
   14.8343    9.6228   12.2618 C   0  0  0  0  0  0  0  0  0  0  0  0
   14.8607   10.9901   13.2691 Cl  0  0  0  0  0  0  0  0  0  0  0  0
  1  2  1  0
  3  2  1  1
  3  4  1  0
  4  5  1  0
  5  6  1  0
  6  7  1  0
  7  8  1  6
  8  9  1  0
  9 10  2  0
 10 11  1  0
 11 12  2  0
 12 13  1  0
 13 14  1  0
 14 15  2  0
 15 16  1  0
 16 17  2  0
 17 18  1  0
  7  3  1  0
 17  9  1  0
 16 12  1  0
M  END
>  <submitter_email>  (6) 
None

>  <original ID>  (6) 
WHLDZOYDHAHKLT-DTWKUNHWSA-N

>  <ref_url>  (6) 
None

>  <ref_mols>  (6) 
c0406a,c0894a

>  <alias>  (6) 
None

>  <inchikey>  (6) 
WHLDZOYDHAHKLT-DTWKUNHWSA-N

>  <HIPPO ID>  (6) 
6230

>  <ref_pdb>  (6) 
c0300a

>  <generation_date>  (6) 
None

>  <submitter_name>  (6) 
None

>  <method>  (6) 
None

>  <tags>  (6) 
['Syndirella base']

>  <original SMILES>  (6) 
OC[C@@H]1CCC[C@H]1Nc1ccc2[nH]cnc2c1Cl

$$$$
WHLDZOYDHAHKLT-RKDXNWHRSA-N
     RDKit          3D

 18 20  0  0  0  0  0  0  0  0999 V2000
   10.5074    6.4801   13.8143 O   0  0  0  0  0  0  0  0  0  0  0  0
   11.8695    6.0722   13.7059 C   0  0  0  0  0  0  0  0  0  0  0  0
   12.7400    7.0121   14.5541 C   0  0  1  0  0  0  0  0  0  0  0  0
   12.4510    6.8907   16.0588 C   0  0  0  0  0  0  0  0  0  0  0  0
   13.6806    6.2188   16.6872 C   0  0  0  0  0  0  0  0  0  0  0  0
   14.4936    5.6898   15.5193 C   0  0  0  0  0  0  0  0  0  0  0  0
   14.2547    6.7880   14.5065 C   0  0  1  0  0  0  0  0  0  0  0  0
   14.7865    6.4438   13.2193 N   0  0  0  0  0  0  0  0  0  0  0  0
   14.5661    7.3527   12.1866 C   0  0  0  0  0  0  0  0  0  0  0  0
   14.0983    6.7733   10.9965 C   0  0  0  0  0  0  0  0  0  0  0  0
   13.8742    7.5035    9.8543 C   0  0  0  0  0  0  0  0  0  0  0  0
   14.3169    8.7975    9.9156 C   0  0  0  0  0  0  0  0  0  0  0  0
   14.4654    9.6978    8.9292 N   0  0  0  0  0  0  0  0  0  0  0  0
   15.2541   10.6484    9.4535 C   0  0  0  0  0  0  0  0  0  0  0  0
   15.1270   10.7284   10.7481 N   0  0  0  0  0  0  0  0  0  0  0  0
   14.7553    9.4524   11.0547 C   0  0  0  0  0  0  0  0  0  0  0  0
   14.7756    8.7448   12.2518 C   0  0  0  0  0  0  0  0  0  0  0  0
   15.1150    9.7320   13.6087 Cl  0  0  0  0  0  0  0  0  0  0  0  0
  1  2  1  0
  3  2  1  6
  3  4  1  0
  4  5  1  0
  5  6  1  0
  6  7  1  0
  7  8  1  6
  8  9  1  0
  9 10  2  0
 10 11  1  0
 11 12  2  0
 12 13  1  0
 13 14  1  0
 14 15  2  0
 15 16  1  0
 16 17  2  0
 17 18  1  0
  7  3  1  0
 17  9  1  0
 16 12  1  0
M  END
>  <submitter_email>  (7) 
None

>  <original ID>  (7) 
WHLDZOYDHAHKLT-RKDXNWHRSA-N

>  <ref_url>  (7) 
None

>  <ref_mols>  (7) 
c0406a,c0894a

>  <alias>  (7) 
None

>  <inchikey>  (7) 
WHLDZOYDHAHKLT-RKDXNWHRSA-N

>  <HIPPO ID>  (7) 
6231

>  <ref_pdb>  (7) 
c0300a

>  <generation_date>  (7) 
None

>  <submitter_name>  (7) 
None

>  <method>  (7) 
None

>  <tags>  (7) 
['Syndirella base']

>  <original SMILES>  (7) 
OC[C@H]1CCC[C@H]1Nc1ccc2[nH]cnc2c1Cl

$$$$
IMTCTUMLWQUKFC-UHFFFAOYSA-N
     RDKit          3D

 16 17  0  0  0  0  0  0  0  0999 V2000
   15.0702    9.5386    9.3614 C   0  0  0  0  0  0  0  0  0  0  0  0
   14.8623   10.3617   10.5328 N   0  0  0  0  0  0  0  0  0  0  0  0
   14.6282   11.6798   10.3653 N   0  0  0  0  0  0  0  0  0  0  0  0
   14.4098   12.1326   11.5988 C   0  0  0  0  0  0  0  0  0  0  0  0
   14.5686   11.1240   12.5665 C   0  0  0  0  0  0  0  0  0  0  0  0
   14.8025    9.9566   11.8513 C   0  0  0  0  0  0  0  0  0  0  0  0
   14.8870    8.5673   12.2682 C   0  0  0  0  0  0  0  0  0  0  0  0
   15.1139    7.6491   11.4849 O   0  0  0  0  0  0  0  0  0  0  0  0
   14.6857    8.3470   13.6131 N   0  0  0  0  0  0  0  0  0  0  0  0
   14.5904    7.0078   14.1496 C   0  0  0  0  0  0  0  0  0  0  0  0
   13.3360    6.3700   13.6524 C   0  0  0  0  0  0  0  0  0  0  0  0
   13.2293    5.4889   12.5975 C   0  0  0  0  0  0  0  0  0  0  0  0
   11.8850    5.1612   12.3120 C   0  0  0  0  0  0  0  0  0  0  0  0
   11.0004    5.7477   13.1823 C   0  0  0  0  0  0  0  0  0  0  0  0
    9.6803    5.6215   13.1886 O   0  0  0  0  0  0  0  0  0  0  0  0
   11.8031    6.7235   14.3322 S   0  0  0  0  0  0  0  0  0  0  0  0
  1  2  1  0
  2  3  1  0
  3  4  2  0
  4  5  1  0
  5  6  2  0
  6  7  1  0
  7  8  2  0
  7  9  1  0
  9 10  1  0
 10 11  1  0
 11 12  2  0
 12 13  1  0
 13 14  2  0
 14 15  1  0
 14 16  1  0
  6  2  1  0
 16 11  1  0
M  END
>  <submitter_email>  (8) 
None

>  <original ID>  (8) 
IMTCTUMLWQUKFC-UHFFFAOYSA-N

>  <ref_url>  (8) 
None

>  <ref_mols>  (8) 
cx1151a,c0892a,c1151a

>  <alias>  (8) 
None

>  <inchikey>  (8) 
IMTCTUMLWQUKFC-UHFFFAOYSA-N

>  <HIPPO ID>  (8) 
6232

>  <ref_pdb>  (8) 
c0300a

>  <generation_date>  (8) 
None

>  <submitter_name>  (8) 
None

>  <method>  (8) 
None

>  <tags>  (8) 
['Syndirella base']

>  <original SMILES>  (8) 
Cn1nccc1C(=O)NCc1ccc(O)s1

$$$$
YIIMVUSFSKUYCA-UHFFFAOYSA-N
     RDKit          3D

 18 19  0  0  0  0  0  0  0  0999 V2000
   15.2305    2.2012   13.9086 C   0  0  0  0  0  0  0  0  0  0  0  0
   16.4549    2.7626   14.5164 C   0  0  0  0  0  0  0  0  0  0  0  0
   17.2681    3.6716   13.8310 C   0  0  0  0  0  0  0  0  0  0  0  0
   17.0521    4.2459   12.4652 C   0  0  0  0  0  0  0  0  0  0  0  0
   18.0294    4.4052   11.7203 O   0  0  0  0  0  0  0  0  0  0  0  0
   15.8703    4.7721   12.0168 N   0  0  0  0  0  0  0  0  0  0  0  0
   14.5217    4.7728   12.5006 C   0  0  0  0  0  0  0  0  0  0  0  0
   14.5034    5.0294   13.8787 O   0  0  0  0  0  0  0  0  0  0  0  0
   18.4439    4.0763   14.4502 C   0  0  0  0  0  0  0  0  0  0  0  0
   18.7888    3.5229   15.6666 C   0  0  0  0  0  0  0  0  0  0  0  0
   17.9992    2.6789   16.3508 N   0  0  0  0  0  0  0  0  0  0  0  0
   16.8086    2.3559   15.8191 C   0  0  0  0  0  0  0  0  0  0  0  0
   15.8918    1.7073   16.6500 N   0  0  0  0  0  0  0  0  0  0  0  0
   16.2172    0.3597   17.1159 C   0  0  0  0  0  0  0  0  0  0  0  0
   15.0457   -0.2051   17.9525 C   0  0  0  0  0  0  0  0  0  0  0  0
   15.7272   -1.0912   18.9431 C   0  0  0  0  0  0  0  0  0  0  0  0
   17.0401   -0.8512   18.9875 C   0  0  0  0  0  0  0  0  0  0  0  0
   17.4279    0.2515   18.0481 C   0  0  0  0  0  0  0  0  0  0  0  0
  1  2  1  0
  2  3  2  0
  3  4  1  0
  4  5  2  0
  4  6  1  0
  6  7  1  0
  7  8  1  0
  3  9  1  0
  9 10  2  0
 10 11  1  0
 11 12  2  0
 12 13  1  0
 13 14  1  0
 14 15  1  0
 15 16  1  0
 16 17  2  0
 17 18  1  0
 12  2  1  0
 18 14  1  0
M  END
>  <submitter_email>  (9) 
None

>  <original ID>  (9) 
YIIMVUSFSKUYCA-UHFFFAOYSA-N

>  <ref_url>  (9) 
None

>  <ref_mols>  (9) 
cx0317a,c0317a,c0441a

>  <alias>  (9) 
None

>  <inchikey>  (9) 
YIIMVUSFSKUYCA-UHFFFAOYSA-N

>  <HIPPO ID>  (9) 
6233

>  <ref_pdb>  (9) 
c0300a

>  <generation_date>  (9) 
None

>  <submitter_name>  (9) 
None

>  <method>  (9) 
None

>  <tags>  (9) 
['Syndirella base']

>  <original SMILES>  (9) 
Cc1c(C(=O)NCO)ccnc1NC1CC=CC1

$$$$
QQBWHKPVEOERHW-UHFFFAOYSA-N
     RDKit          3D

 19 20  0  0  0  0  0  0  0  0999 V2000
   23.2016   14.2565    9.8577 N   0  0  0  0  0  0  0  0  0  0  0  0
   22.9765   13.0412   10.4106 C   0  0  0  0  0  0  0  0  0  0  0  0
   23.8575   12.2144   10.5621 O   0  0  0  0  0  0  0  0  0  0  0  0
   21.5847   12.7544   10.7790 C   0  0  0  0  0  0  0  0  0  0  0  0
   21.0617   11.5373   10.3702 C   0  0  0  0  0  0  0  0  0  0  0  0
   19.7091   11.2911   10.5569 C   0  0  0  0  0  0  0  0  0  0  0  0
   18.8925   12.1959   11.2525 C   0  0  0  0  0  0  0  0  0  0  0  0
   17.5083   11.7419   11.5583 C   0  0  0  0  0  0  0  0  0  0  0  0
   17.0219   11.9972   12.6519 O   0  0  0  0  0  0  0  0  0  0  0  0
   16.9119   10.9763   10.5736 N   0  0  0  0  0  0  0  0  0  0  0  0
   15.9388    9.9821   10.7682 C   0  0  0  0  0  0  0  0  0  0  0  0
   15.3862    9.4035    9.6247 C   0  0  0  0  0  0  0  0  0  0  0  0
   14.5353    8.3080    9.7312 C   0  0  0  0  0  0  0  0  0  0  0  0
   14.2888    7.7409   10.9750 C   0  0  0  0  0  0  0  0  0  0  0  0
   14.8095    8.3345   12.1225 C   0  0  0  0  0  0  0  0  0  0  0  0
   15.6041    9.4759   12.0229 C   0  0  0  0  0  0  0  0  0  0  0  0
   19.4560   13.3781   11.7500 C   0  0  0  0  0  0  0  0  0  0  0  0
   18.5718   14.5414   12.6700 Cl  0  0  0  0  0  0  0  0  0  0  0  0
   20.7963   13.6749   11.4762 C   0  0  0  0  0  0  0  0  0  0  0  0
  1  2  1  0
  2  3  2  0
  2  4  1  0
  4  5  2  0
  5  6  1  0
  6  7  2  0
  7  8  1  0
  8  9  2  0
  8 10  1  0
 10 11  1  0
 11 12  2  0
 12 13  1  0
 13 14  2  0
 14 15  1  0
 15 16  2  0
  7 17  1  0
 17 18  1  0
 17 19  2  0
 19  4  1  0
 16 11  1  0
M  END
>  <submitter_email>  (10) 
None

>  <original ID>  (10) 
QQBWHKPVEOERHW-UHFFFAOYSA-N

>  <ref_url>  (10) 
None

>  <ref_mols>  (10) 
cx0692a,c0692a,c1371b,c1371a

>  <alias>  (10) 
None

>  <inchikey>  (10) 
QQBWHKPVEOERHW-UHFFFAOYSA-N

>  <HIPPO ID>  (10) 
6234

>  <ref_pdb>  (10) 
c0270a

>  <generation_date>  (10) 
None

>  <submitter_name>  (10) 
None

>  <method>  (10) 
None

>  <tags>  (10) 
['Syndirella base']

>  <original SMILES>  (10) 
NC(=O)c1ccc(C(=O)Nc2ccccc2)c(Cl)c1

$$$$
RZIGAYKJCIITOG-UHFFFAOYSA-N
     RDKit          3D

 14 15  0  0  0  0  0  0  0  0999 V2000
   21.6780   16.8351   13.9032 C   0  0  0  0  0  0  0  0  0  0  0  0
   21.3934   15.7789   12.9664 N   0  0  0  0  0  0  0  0  0  0  0  0
   22.3704   14.8509   12.6545 C   0  0  0  0  0  0  0  0  0  0  0  0
   23.5346   14.9805   13.0073 O   0  0  0  0  0  0  0  0  0  0  0  0
   21.9512   13.7115   11.8079 C   0  0  0  0  0  0  0  0  0  0  0  0
   22.9025   13.0287   11.0385 C   0  0  0  0  0  0  0  0  0  0  0  0
   22.5449   11.9120   10.2897 C   0  0  0  0  0  0  0  0  0  0  0  0
   21.2255   11.4483   10.2886 C   0  0  0  0  0  0  0  0  0  0  0  0
   20.2361   12.1487   11.0005 C   0  0  0  0  0  0  0  0  0  0  0  0
   18.8232   12.0076   11.1350 C   0  0  0  0  0  0  0  0  0  0  0  0
   18.4277   12.9597   12.0315 C   0  0  0  0  0  0  0  0  0  0  0  0
   16.9272   13.3661   12.6951 Cl  0  0  0  0  0  0  0  0  0  0  0  0
   19.5091   13.6470   12.4716 N   0  0  0  0  0  0  0  0  0  0  0  0
   20.6261   13.2458   11.7742 C   0  0  0  0  0  0  0  0  0  0  0  0
  1  2  1  0
  2  3  1  0
  3  4  2  0
  3  5  1  0
  5  6  2  0
  6  7  1  0
  7  8  2  0
  8  9  1  0
  9 10  1  0
 10 11  2  0
 11 12  1  0
 11 13  1  0
 13 14  1  0
 14  5  1  0
 14  9  2  0
M  END
>  <submitter_email>  (11) 
None

>  <original ID>  (11) 
RZIGAYKJCIITOG-UHFFFAOYSA-N

>  <ref_url>  (11) 
None

>  <ref_mols>  (11) 
c0399a,c0399f,c0894a,c0894b

>  <alias>  (11) 
None

>  <inchikey>  (11) 
RZIGAYKJCIITOG-UHFFFAOYSA-N

>  <HIPPO ID>  (11) 
6235

>  <ref_pdb>  (11) 
c0270a

>  <generation_date>  (11) 
None

>  <submitter_name>  (11) 
None

>  <method>  (11) 
None

>  <tags>  (11) 
['Syndirella base']

>  <original SMILES>  (11) 
CNC(=O)c1cccc2cc(Cl)[nH]c12

$$$$
QVSYFXSEJNFZKD-UHFFFAOYSA-N
     RDKit          3D

 21 22  0  0  0  0  0  0  0  0999 V2000
   21.4103   11.7504   11.9520 C   0  0  0  0  0  0  0  0  0  0  0  0
   20.5807   10.8177   11.2899 O   0  0  0  0  0  0  0  0  0  0  0  0
   19.7004   11.4330   10.3873 C   0  0  0  0  0  0  0  0  0  0  0  0
   18.2950   11.6787   10.9419 C   0  0  0  0  0  0  0  0  0  0  0  0
   18.1302   12.3997   11.9266 O   0  0  0  0  0  0  0  0  0  0  0  0
   17.2674   11.0074   10.2847 N   0  0  0  0  0  0  0  0  0  0  0  0
   16.0498   10.8431   10.9455 C   0  0  0  0  0  0  0  0  0  0  0  0
   15.4408   11.8793   11.6642 C   0  0  0  0  0  0  0  0  0  0  0  0
   14.5790   11.5849   12.7035 C   0  0  0  0  0  0  0  0  0  0  0  0
   14.3942   10.2532   13.0425 C   0  0  0  0  0  0  0  0  0  0  0  0
   14.9237    9.2348   12.2283 C   0  0  0  0  0  0  0  0  0  0  0  0
   14.8096    7.7974   12.5200 C   0  0  0  0  0  0  0  0  0  0  0  0
   14.9556    6.9771   11.6199 O   0  0  0  0  0  0  0  0  0  0  0  0
   14.5895    7.4641   13.8308 N   0  0  0  0  0  0  0  0  0  0  0  0
   14.1660    6.1313   14.1658 C   0  0  0  0  0  0  0  0  0  0  0  0
   12.7064    6.0258   13.8584 C   0  0  0  0  0  0  0  0  0  0  0  0
   12.1110    5.3585   12.8065 C   0  0  0  0  0  0  0  0  0  0  0  0
   10.6927    5.4692   12.8287 C   0  0  0  0  0  0  0  0  0  0  0  0
   10.2521    6.2370   13.8823 C   0  0  0  0  0  0  0  0  0  0  0  0
   11.5443    6.8264   14.8340 S   0  0  0  0  0  0  0  0  0  0  0  0
   15.6661    9.5351   11.1039 C   0  0  0  0  0  0  0  0  0  0  0  0
  1  2  1  0
  2  3  1  0
  3  4  1  0
  4  5  2  0
  4  6  1  0
  6  7  1  0
  7  8  2  0
  8  9  1  0
  9 10  2  0
 10 11  1  0
 11 12  1  0
 12 13  2  0
 12 14  1  0
 14 15  1  0
 15 16  1  0
 16 17  2  0
 17 18  1  0
 18 19  2  0
 19 20  1  0
 11 21  2  0
 21  7  1  0
 20 16  1  0
M  END
>  <submitter_email>  (12) 
None

>  <original ID>  (12) 
QVSYFXSEJNFZKD-UHFFFAOYSA-N

>  <ref_url>  (12) 
None

>  <ref_mols>  (12) 
cx0692a,c0692a,c0892a

>  <alias>  (12) 
None

>  <inchikey>  (12) 
QVSYFXSEJNFZKD-UHFFFAOYSA-N

>  <HIPPO ID>  (12) 
6236

>  <ref_pdb>  (12) 
c0270a

>  <generation_date>  (12) 
None

>  <submitter_name>  (12) 
None

>  <method>  (12) 
None

>  <tags>  (12) 
['Syndirella base']

>  <original SMILES>  (12) 
COCC(=O)Nc1cccc(C(=O)NCc2cccs2)c1

$$$$
JXRCCCJCUJURBQ-UHFFFAOYSA-N
     RDKit          3D

 16 17  0  0  0  0  0  0  0  0999 V2000
   18.6413   10.4967   10.1389 C   0  0  0  0  0  0  0  0  0  0  0  0
   18.8846   11.6671   10.9985 C   0  0  0  0  0  0  0  0  0  0  0  0
   20.2114   12.1327   11.1057 C   0  0  0  0  0  0  0  0  0  0  0  0
   20.5113   13.2297   11.8968 C   0  0  0  0  0  0  0  0  0  0  0  0
   19.4873   13.8703   12.5813 C   0  0  0  0  0  0  0  0  0  0  0  0
   18.1768   13.3916   12.4769 C   0  0  0  0  0  0  0  0  0  0  0  0
   17.1731   14.0041   13.1822 O   0  0  0  0  0  0  0  0  0  0  0  0
   17.8386   12.2671   11.7046 C   0  0  0  0  0  0  0  0  0  0  0  0
   16.4637   11.8946   11.6023 N   0  0  0  0  0  0  0  0  0  0  0  0
   15.8605   10.6383   11.3549 C   0  0  0  0  0  0  0  0  0  0  0  0
   15.4480   10.2735   10.0632 C   0  0  0  0  0  0  0  0  0  0  0  0
   14.8398    9.0450    9.8003 C   0  0  0  0  0  0  0  0  0  0  0  0
   14.6103    8.1738   10.8505 C   0  0  0  0  0  0  0  0  0  0  0  0
   13.9547    6.9952   10.6445 O   0  0  0  0  0  0  0  0  0  0  0  0
   14.9987    8.5101   12.1448 C   0  0  0  0  0  0  0  0  0  0  0  0
   15.6204    9.7405   12.3966 C   0  0  0  0  0  0  0  0  0  0  0  0
  1  2  1  0
  2  3  2  0
  3  4  1  0
  4  5  2  0
  5  6  1  0
  6  7  1  0
  6  8  2  0
  8  9  1  0
  9 10  1  0
 10 11  2  0
 11 12  1  0
 12 13  2  0
 13 14  1  0
 13 15  1  0
 15 16  2  0
  8  2  1  0
 16 10  1  0
M  END
>  <submitter_email>  (13) 
None

>  <original ID>  (13) 
JXRCCCJCUJURBQ-UHFFFAOYSA-N

>  <ref_url>  (13) 
None

>  <ref_mols>  (13) 
cx0935a,c0935a,c1116c,c1116a

>  <alias>  (13) 
None

>  <inchikey>  (13) 
JXRCCCJCUJURBQ-UHFFFAOYSA-N

>  <HIPPO ID>  (13) 
6237

>  <ref_pdb>  (13) 
c0270a

>  <generation_date>  (13) 
None

>  <submitter_name>  (13) 
None

>  <method>  (13) 
None

>  <tags>  (13) 
['Syndirella base']

>  <original SMILES>  (13) 
Cc1cccc(O)c1Nc1ccc(O)cc1

$$$$
WZOLBARQWWYVFM-UHFFFAOYSA-N
     RDKit          3D

 20 22  0  0  0  0  0  0  0  0999 V2000
   21.0270   11.0646   10.5446 C   0  0  0  0  0  0  0  0  0  0  0  0
   21.0282   12.5307   10.6106 C   0  0  0  0  0  0  0  0  0  0  0  0
   22.0569   13.2742   10.0758 C   0  0  0  0  0  0  0  0  0  0  0  0
   21.8129   14.5803   10.3211 N   0  0  0  0  0  0  0  0  0  0  0  0
   20.6944   14.7016   11.1094 C   0  0  0  0  0  0  0  0  0  0  0  0
   20.2012   15.8599   11.7219 C   0  0  0  0  0  0  0  0  0  0  0  0
   19.0647   15.7605   12.4961 C   0  0  0  0  0  0  0  0  0  0  0  0
   18.4028   14.5494   12.5762 C   0  0  0  0  0  0  0  0  0  0  0  0
   18.8525   13.3746   11.9190 C   0  0  0  0  0  0  0  0  0  0  0  0
   17.9334   12.2285   12.1314 C   0  0  0  0  0  0  0  0  0  0  0  0
   17.4420   12.1658   13.2606 O   0  0  0  0  0  0  0  0  0  0  0  0
   17.5899   11.3897   11.0792 N   0  0  0  0  0  0  0  0  0  0  0  0
   16.5773   10.3797   11.1197 C   0  0  0  0  0  0  0  0  0  0  0  0
   16.2422    9.7217    9.9332 C   0  0  0  0  0  0  0  0  0  0  0  0
   15.2788    8.7117    9.8857 C   0  0  0  0  0  0  0  0  0  0  0  0
   14.6885    8.2829   11.0554 C   0  0  0  0  0  0  0  0  0  0  0  0
   13.7929    7.2561   11.0497 O   0  0  0  0  0  0  0  0  0  0  0  0
   14.9977    8.9075   12.2539 C   0  0  0  0  0  0  0  0  0  0  0  0
   15.9094    9.9732   12.2793 C   0  0  0  0  0  0  0  0  0  0  0  0
   20.0896   13.4303   11.2201 C   0  0  0  0  0  0  0  0  0  0  0  0
  1  2  1  0
  2  3  2  0
  3  4  1  0
  4  5  1  0
  5  6  2  0
  6  7  1  0
  7  8  2  0
  8  9  1  0
  9 10  1  0
 10 11  2  0
 10 12  1  0
 12 13  1  0
 13 14  2  0
 14 15  1  0
 15 16  2  0
 16 17  1  0
 16 18  1  0
 18 19  2  0
  9 20  2  0
 20  2  1  0
 20  5  1  0
 19 13  1  0
M  END
>  <submitter_email>  (14) 
None

>  <original ID>  (14) 
WZOLBARQWWYVFM-UHFFFAOYSA-N

>  <ref_url>  (14) 
None

>  <ref_mols>  (14) 
cx0935a,c0935a,c1271a,c1271d

>  <alias>  (14) 
None

>  <inchikey>  (14) 
WZOLBARQWWYVFM-UHFFFAOYSA-N

>  <HIPPO ID>  (14) 
6238

>  <ref_pdb>  (14) 
c0270a

>  <generation_date>  (14) 
None

>  <submitter_name>  (14) 
None

>  <method>  (14) 
None

>  <tags>  (14) 
['Syndirella base']

>  <original SMILES>  (14) 
Cc1c[nH]c2cccc(C(=O)Nc3ccc(O)cc3)c12

$$$$
WLFMTZKZYACXSW-UHFFFAOYSA-N
     RDKit          3D

 24 26  0  0  0  0  0  0  0  0999 V2000
   21.5948   17.9749   13.5905 C   0  0  0  0  0  0  0  0  0  0  0  0
   22.0166   16.5854   13.5249 N   0  0  0  0  0  0  0  0  0  0  0  0
   23.3570   16.3221   14.0348 C   0  0  0  0  0  0  0  0  0  0  0  0
   21.0664   15.5904   13.8114 C   0  0  0  0  0  0  0  0  0  0  0  0
   21.3161   14.6703   14.5856 O   0  0  0  0  0  0  0  0  0  0  0  0
   19.7492   15.6777   13.0673 C   0  0  0  0  0  0  0  0  0  0  0  0
   19.3843   14.3999   12.4756 N   0  0  0  0  0  0  0  0  0  0  0  0
   18.0975   13.9753   12.5538 N   0  0  0  0  0  0  0  0  0  0  0  0
   18.1241   12.7839   11.9381 C   0  0  0  0  0  0  0  0  0  0  0  0
   16.9314   11.8744   11.9293 C   0  0  0  0  0  0  0  0  0  0  0  0
   16.9367   10.8615   10.8767 N   0  0  0  0  0  0  0  0  0  0  0  0
   15.9674    9.8715   10.8667 C   0  0  0  0  0  0  0  0  0  0  0  0
   15.4332    9.4753    9.6378 C   0  0  0  0  0  0  0  0  0  0  0  0
   14.5273    8.4274    9.5584 C   0  0  0  0  0  0  0  0  0  0  0  0
   14.2151    7.7162   10.7042 C   0  0  0  0  0  0  0  0  0  0  0  0
   13.3664    6.6538   10.6467 O   0  0  0  0  0  0  0  0  0  0  0  0
   14.7283    8.0868   11.9368 C   0  0  0  0  0  0  0  0  0  0  0  0
   15.5825    9.1825   12.0195 C   0  0  0  0  0  0  0  0  0  0  0  0
   19.3988   12.5004   11.3828 C   0  0  0  0  0  0  0  0  0  0  0  0
   19.9659   11.4332   10.6668 C   0  0  0  0  0  0  0  0  0  0  0  0
   21.3236   11.4588   10.3551 C   0  0  0  0  0  0  0  0  0  0  0  0
   22.0993   12.5607   10.6789 C   0  0  0  0  0  0  0  0  0  0  0  0
   21.5476   13.6495   11.3554 C   0  0  0  0  0  0  0  0  0  0  0  0
   20.1962   13.5808   11.7260 C   0  0  0  0  0  0  0  0  0  0  0  0
  1  2  1  0
  2  3  1  0
  2  4  1  0
  4  5  2  0
  4  6  1  0
  6  7  1  0
  7  8  1  0
  8  9  2  0
  9 10  1  0
 10 11  1  0
 11 12  1  0
 12 13  2  0
 13 14  1  0
 14 15  2  0
 15 16  1  0
 15 17  1  0
 17 18  2  0
  9 19  1  0
 19 20  2  0
 20 21  1  0
 21 22  2  0
 22 23  1  0
 23 24  2  0
 24  7  1  0
 18 12  1  0
 24 19  1  0
M  END
>  <submitter_email>  (15) 
None

>  <original ID>  (15) 
WLFMTZKZYACXSW-UHFFFAOYSA-N

>  <ref_url>  (15) 
None

>  <ref_mols>  (15) 
cx0935a,c0312a,c0935a

>  <alias>  (15) 
None

>  <inchikey>  (15) 
WLFMTZKZYACXSW-UHFFFAOYSA-N

>  <HIPPO ID>  (15) 
6239

>  <ref_pdb>  (15) 
c0270a

>  <generation_date>  (15) 
None

>  <submitter_name>  (15) 
None

>  <method>  (15) 
None

>  <tags>  (15) 
['Syndirella base']

>  <original SMILES>  (15) 
CN(C)C(=O)Cn1nc(CNc2ccc(O)cc2)c2ccccc21

$$$$
WRQXFZOITXUYML-UHFFFAOYSA-N
     RDKit          3D

 20 22  0  0  0  0  0  0  0  0999 V2000
   15.1911    9.4166    9.3935 C   0  0  0  0  0  0  0  0  0  0  0  0
   15.0190   10.2397   10.5687 N   0  0  0  0  0  0  0  0  0  0  0  0
   14.9120   11.5771   10.4058 N   0  0  0  0  0  0  0  0  0  0  0  0
   14.6791   12.0335   11.6346 C   0  0  0  0  0  0  0  0  0  0  0  0
   14.6659   11.0024   12.5869 C   0  0  0  0  0  0  0  0  0  0  0  0
   14.8529    9.8266   11.8731 C   0  0  0  0  0  0  0  0  0  0  0  0
   14.8411    8.4412   12.3011 C   0  0  0  0  0  0  0  0  0  0  0  0
   15.1804    7.5041   11.5861 O   0  0  0  0  0  0  0  0  0  0  0  0
   14.3772    8.2422   13.5859 N   0  0  0  0  0  0  0  0  0  0  0  0
   14.0732    6.9214   14.0893 C   0  0  0  0  0  0  0  0  0  0  0  0
   12.6669    6.5224   13.7318 C   0  0  0  0  0  0  0  0  0  0  0  0
   12.3347    5.6780   12.6885 C   0  0  0  0  0  0  0  0  0  0  0  0
   10.6604    5.3560   12.6929 S   0  0  0  0  0  0  0  0  0  0  0  0
   10.4612    6.3597   14.0699 C   0  0  0  0  0  0  0  0  0  0  0  0
    9.1597    6.5361   14.6544 C   0  0  0  0  0  0  0  0  0  0  0  0
    8.0805    5.7981   14.4673 N   0  0  0  0  0  0  0  0  0  0  0  0
    7.1241    6.4279   15.2169 C   0  0  0  0  0  0  0  0  0  0  0  0
    7.5370    7.5310   15.8387 N   0  0  0  0  0  0  0  0  0  0  0  0
    8.8255    7.5630   15.4820 N   0  0  0  0  0  0  0  0  0  0  0  0
   11.5623    6.9850   14.4802 N   0  0  0  0  0  0  0  0  0  0  0  0
  1  2  1  0
  2  3  1  0
  3  4  2  0
  4  5  1  0
  5  6  2  0
  6  7  1  0
  7  8  2  0
  7  9  1  0
  9 10  1  0
 10 11  1  0
 11 12  2  0
 12 13  1  0
 13 14  1  0
 14 15  1  0
 15 16  2  0
 16 17  1  0
 17 18  2  0
 18 19  1  0
 14 20  2  0
  6  2  1  0
 20 11  1  0
 19 15  1  0
M  END
>  <submitter_email>  (16) 
None

>  <original ID>  (16) 
WRQXFZOITXUYML-UHFFFAOYSA-N

>  <ref_url>  (16) 
None

>  <ref_mols>  (16) 
c0281a,c0892a

>  <alias>  (16) 
None

>  <inchikey>  (16) 
WRQXFZOITXUYML-UHFFFAOYSA-N

>  <HIPPO ID>  (16) 
6240

>  <ref_pdb>  (16) 
c0281a

>  <generation_date>  (16) 
None

>  <submitter_name>  (16) 
None

>  <method>  (16) 
None

>  <tags>  (16) 
['Syndirella base']

>  <original SMILES>  (16) 
Cn1nccc1C(=O)NCc1csc(-c2ncn[nH]2)n1

$$$$
GNFBAQJUTMHLTB-UHFFFAOYSA-N
     RDKit          3D

 15 16  0  0  0  0  0  0  0  0999 V2000
   15.5800    9.3920    9.8039 C   0  0  0  0  0  0  0  0  0  0  0  0
   16.5580   10.3467   10.2544 N   0  0  0  0  0  0  0  0  0  0  0  0
   16.3333   11.0559   11.4110 C   0  0  0  0  0  0  0  0  0  0  0  0
   15.3722   10.8270   12.1409 O   0  0  0  0  0  0  0  0  0  0  0  0
   17.2944   12.1116   11.7251 C   0  0  0  0  0  0  0  0  0  0  0  0
   16.9546   13.2118   12.4981 C   0  0  0  0  0  0  0  0  0  0  0  0
   18.0749   13.9559   12.7218 N   0  0  0  0  0  0  0  0  0  0  0  0
   18.1092   15.2138   13.4366 C   0  0  0  0  0  0  0  0  0  0  0  0
   19.1738   13.3187   12.1978 C   0  0  0  0  0  0  0  0  0  0  0  0
   20.5410   13.5900   12.3549 C   0  0  0  0  0  0  0  0  0  0  0  0
   21.4577   12.7364   11.7466 C   0  0  0  0  0  0  0  0  0  0  0  0
   23.1303   12.9611   12.0852 Cl  0  0  0  0  0  0  0  0  0  0  0  0
   21.0309   11.7071   10.9165 C   0  0  0  0  0  0  0  0  0  0  0  0
   19.6579   11.4534   10.7552 C   0  0  0  0  0  0  0  0  0  0  0  0
   18.7028   12.2309   11.4514 C   0  0  0  0  0  0  0  0  0  0  0  0
  1  2  1  0
  2  3  1  0
  3  4  2  0
  3  5  1  0
  5  6  2  0
  6  7  1  0
  7  8  1  0
  7  9  1  0
  9 10  2  0
 10 11  1  0
 11 12  1  0
 11 13  2  0
 13 14  1  0
 14 15  2  0
 15  5  1  0
 15  9  1  0
M  END
>  <submitter_email>  (17) 
None

>  <original ID>  (17) 
GNFBAQJUTMHLTB-UHFFFAOYSA-N

>  <ref_url>  (17) 
None

>  <ref_mols>  (17) 
c0270a,c0894a,c0894d

>  <alias>  (17) 
None

>  <inchikey>  (17) 
GNFBAQJUTMHLTB-UHFFFAOYSA-N

>  <HIPPO ID>  (17) 
6241

>  <ref_pdb>  (17) 
c0270a

>  <generation_date>  (17) 
None

>  <submitter_name>  (17) 
None

>  <method>  (17) 
None

>  <tags>  (17) 
['Syndirella base']

>  <original SMILES>  (17) 
CNC(=O)c1cn(C)c2cc(Cl)ccc12

$$$$
OYAFCPFGSBONSE-UHFFFAOYSA-N
     RDKit          3D

 25 28  0  0  0  0  0  0  0  0999 V2000
   14.4012    9.1103    9.2169 C   0  0  0  0  0  0  0  0  0  0  0  0
   14.7042    8.6832   10.5903 N   0  0  0  0  0  0  0  0  0  0  0  0
   14.5624    7.3435   10.8072 C   0  0  0  0  0  0  0  0  0  0  0  0
   15.3816    6.4571   11.3400 N   0  0  0  0  0  0  0  0  0  0  0  0
   14.7917    5.2404   11.0330 C   0  0  0  0  0  0  0  0  0  0  0  0
   15.4379    3.9025   11.2616 C   0  0  0  0  0  0  0  0  0  0  0  0
   16.1144    3.8264   12.5595 N   0  0  0  0  0  0  0  0  0  0  0  0
   15.4955    3.1833   13.6175 C   0  0  0  0  0  0  0  0  0  0  0  0
   16.0742    3.0730   14.8172 C   0  0  0  0  0  0  0  0  0  0  0  0
   17.3557    3.6781   15.0446 C   0  0  0  0  0  0  0  0  0  0  0  0
   18.0009    4.2803   14.0390 C   0  0  0  0  0  0  0  0  0  0  0  0
   17.4136    4.3062   12.6713 C   0  0  0  0  0  0  0  0  0  0  0  0
   18.0882    4.7480   11.7412 O   0  0  0  0  0  0  0  0  0  0  0  0
   13.6298    5.3478   10.3756 N   0  0  0  0  0  0  0  0  0  0  0  0
   13.4800    6.7236   10.2118 O   0  0  0  0  0  0  0  0  0  0  0  0
   14.7776    9.7980   11.4914 C   0  0  0  0  0  0  0  0  0  0  0  0
   14.6126   11.0310   10.9039 N   0  0  0  0  0  0  0  0  0  0  0  0
   14.3963   12.1355   11.6453 C   0  0  0  0  0  0  0  0  0  0  0  0
   14.4459   12.1422   13.0133 C   0  0  0  0  0  0  0  0  0  0  0  0
   14.7417   10.9489   13.6599 C   0  0  0  0  0  0  0  0  0  0  0  0
   14.8773   10.9826   15.0559 C   0  0  0  0  0  0  0  0  0  0  0  0
   15.1467    9.8268   15.7771 C   0  0  0  0  0  0  0  0  0  0  0  0
   15.2729    8.6235   15.1062 C   0  0  0  0  0  0  0  0  0  0  0  0
   15.1432    8.5788   13.7138 C   0  0  0  0  0  0  0  0  0  0  0  0
   14.8927    9.7312   12.9240 C   0  0  0  0  0  0  0  0  0  0  0  0
  1  2  1  0
  2  3  1  0
  3  4  2  0
  4  5  1  0
  5  6  1  0
  6  7  1  0
  7  8  1  0
  8  9  2  0
  9 10  1  0
 10 11  2  0
 11 12  1  0
 12 13  2  0
  5 14  2  0
 14 15  1  0
  2 16  1  0
 16 17  2  0
 17 18  1  0
 18 19  2  0
 19 20  1  0
 20 21  2  0
 21 22  1  0
 22 23  2  0
 23 24  1  0
 24 25  2  0
 15  3  1  0
 25 16  1  0
 12  7  1  0
 25 20  1  0
M  END
>  <submitter_email>  (18) 
None

>  <original ID>  (18) 
OYAFCPFGSBONSE-UHFFFAOYSA-N

>  <ref_url>  (18) 
None

>  <ref_mols>  (18) 
c0316a,c0353a

>  <alias>  (18) 
None

>  <inchikey>  (18) 
OYAFCPFGSBONSE-UHFFFAOYSA-N

>  <HIPPO ID>  (18) 
6242

>  <ref_pdb>  (18) 
c0300a

>  <generation_date>  (18) 
None

>  <submitter_name>  (18) 
None

>  <method>  (18) 
None

>  <tags>  (18) 
['Syndirella base']

>  <original SMILES>  (18) 
CN(c1nc(Cn2ccccc2=O)no1)c1nccc2ccccc12

$$$$
UGYMLSSIEIESGU-MRVPVSSYSA-N
     RDKit          3D

 15 16  0  0  0  0  0  0  0  0999 V2000
    8.2128    4.2362   15.0036 O   0  0  0  0  0  0  0  0  0  0  0  0
    8.8437    5.2532   14.7201 C   0  0  0  0  0  0  0  0  0  0  0  0
    9.8150    5.2161   13.6144 C   0  0  0  0  0  0  0  0  0  0  0  0
   10.5941    6.2842   13.4328 C   0  0  0  0  0  0  0  0  0  0  0  0
   10.5428    7.4301   14.1790 N   0  0  0  0  0  0  0  0  0  0  0  0
    9.6245    7.4872   15.0827 C   0  0  0  0  0  0  0  0  0  0  0  0
    8.7692    6.4606   15.3906 N   0  0  0  0  0  0  0  0  0  0  0  0
    7.8238    6.6365   16.4739 C   0  0  0  0  0  0  0  0  0  0  0  0
    6.4650    7.1322   15.9713 C   0  0  1  0  0  0  0  0  0  0  0  0
    5.3690    6.5828   16.8504 C   0  0  0  0  0  0  0  0  0  0  0  0
    5.4108    7.3161   18.1816 C   0  0  0  0  0  0  0  0  0  0  0  0
    5.7286    8.9853   17.7409 S   0  0  0  0  0  6  0  0  0  0  0  0
    6.8615    9.4512   18.5023 O   0  0  0  0  0  0  0  0  0  0  0  0
    4.4730    9.7081   17.7310 O   0  0  0  0  0  0  0  0  0  0  0  0
    6.2574    8.6327   16.0829 C   0  0  0  0  0  0  0  0  0  0  0  0
  1  2  2  0
  2  3  1  0
  3  4  2  0
  4  5  1  0
  5  6  2  0
  6  7  1  0
  7  8  1  0
  9  8  1  1
  9 10  1  0
 10 11  1  0
 11 12  1  0
 12 13  2  0
 12 14  2  0
 12 15  1  0
  7  2  1  0
 15  9  1  0
M  END
>  <submitter_email>  (19) 
None

>  <original ID>  (19) 
UGYMLSSIEIESGU-MRVPVSSYSA-N

>  <ref_url>  (19) 
None

>  <ref_mols>  (19) 
cx0314a,cx1182a,c0314a,c1182a

>  <alias>  (19) 
None

>  <inchikey>  (19) 
UGYMLSSIEIESGU-MRVPVSSYSA-N

>  <HIPPO ID>  (19) 
6243

>  <ref_pdb>  (19) 
c0300a

>  <generation_date>  (19) 
None

>  <submitter_name>  (19) 
None

>  <method>  (19) 
None

>  <tags>  (19) 
['Syndirella base']

>  <original SMILES>  (19) 
O=c1ccncn1C[C@H]1CCS(=O)(=O)C1

$$$$
UGYMLSSIEIESGU-MRVPVSSYSA-N
     RDKit          3D

 15 16  0  0  0  0  0  0  0  0999 V2000
    8.0252    3.8756   14.4741 O   0  0  0  0  0  0  0  0  0  0  0  0
    8.5380    4.9940   14.4871 C   0  0  0  0  0  0  0  0  0  0  0  0
    9.8635    5.1639   13.8750 C   0  0  0  0  0  0  0  0  0  0  0  0
   10.4554    6.3506   13.9940 C   0  0  0  0  0  0  0  0  0  0  0  0
    9.9133    7.4229   14.6384 N   0  0  0  0  0  0  0  0  0  0  0  0
    8.7002    7.2898   15.0727 C   0  0  0  0  0  0  0  0  0  0  0  0
    7.9620    6.1291   15.0363 N   0  0  0  0  0  0  0  0  0  0  0  0
    6.5093    6.0732   15.2444 C   0  0  0  0  0  0  0  0  0  0  0  0
    5.8257    6.8426   16.3634 C   0  0  1  0  0  0  0  0  0  0  0  0
    6.5424    6.6999   17.6914 C   0  0  0  0  0  0  0  0  0  0  0  0
    5.7763    7.5504   18.6821 C   0  0  0  0  0  0  0  0  0  0  0  0
    5.4637    9.0274   17.7797 S   0  0  0  0  0  6  0  0  0  0  0  0
    6.6087    9.8721   17.9776 O   0  0  0  0  0  0  0  0  0  0  0  0
    4.1370    9.5110   18.0682 O   0  0  0  0  0  0  0  0  0  0  0  0
    5.5580    8.3222   16.1466 C   0  0  0  0  0  0  0  0  0  0  0  0
  1  2  2  0
  2  3  1  0
  3  4  2  0
  4  5  1  0
  5  6  2  0
  6  7  1  0
  7  8  1  0
  9  8  1  6
  9 10  1  0
 10 11  1  0
 11 12  1  0
 12 13  2  0
 12 14  2  0
 12 15  1  0
  7  2  1  0
 15  9  1  0
M  END
>  <submitter_email>  (20) 
None

>  <original ID>  (20) 
UGYMLSSIEIESGU-MRVPVSSYSA-N

>  <ref_url>  (20) 
None

>  <ref_mols>  (20) 
cx0314a,cx1182a,c0314a,c1182a

>  <alias>  (20) 
None

>  <inchikey>  (20) 
UGYMLSSIEIESGU-MRVPVSSYSA-N

>  <HIPPO ID>  (20) 
6244

>  <ref_pdb>  (20) 
c0300a

>  <generation_date>  (20) 
None

>  <submitter_name>  (20) 
None

>  <method>  (20) 
None

>  <tags>  (20) 
['Syndirella base']

>  <original SMILES>  (20) 
O=c1ccncn1C[C@H]1CCS(=O)(=O)C1

$$$$
CTECJTBKOFPTMY-SNVBAGLBSA-N
     RDKit          3D

 20 21  0  0  0  0  0  0  0  0999 V2000
   20.3939    1.6567   15.8415 C   0  0  0  0  0  0  0  0  0  0  0  0
   19.3379    0.7817   16.4688 C   0  0  0  0  0  0  0  0  0  0  0  0
   18.0904    1.4671   16.3616 O   0  0  0  0  0  0  0  0  0  0  0  0
   17.0545    0.7397   16.8988 C   0  0  0  0  0  0  0  0  0  0  0  0
   17.2556   -0.6034   17.0500 N   0  0  0  0  0  0  0  0  0  0  0  0
   16.2966   -1.3028   17.6901 C   0  0  0  0  0  0  0  0  0  0  0  0
   15.1453   -0.7329   18.1822 C   0  0  0  0  0  0  0  0  0  0  0  0
   14.9527    0.6277   17.9836 C   0  0  0  0  0  0  0  0  0  0  0  0
   15.9048    1.3998   17.2971 C   0  0  0  0  0  0  0  0  0  0  0  0
   15.7106    2.8574   17.3864 C   0  0  0  0  0  0  0  0  0  0  0  0
   15.5074    3.2488   18.5464 O   0  0  0  0  0  0  0  0  0  0  0  0
   15.6093    3.7698   16.3243 N   0  0  0  0  0  0  0  0  0  0  0  0
   15.1939    5.1085   16.7395 C   0  0  0  0  0  0  0  0  0  0  0  0
   16.1771    3.7754   14.9900 C   0  0  2  0  0  0  0  0  0  0  0  0
   15.8063    2.7642   13.9265 C   0  0  0  0  0  0  0  0  0  0  0  0
   16.2487    3.3946   12.5918 C   0  0  0  0  0  0  0  0  0  0  0  0
   17.6455    4.0046   12.6281 C   0  0  0  0  0  0  0  0  0  0  0  0
   18.2162    4.4424   11.6248 O   0  0  0  0  0  0  0  0  0  0  0  0
   18.2307    4.1819   13.8595 N   0  0  0  0  0  0  0  0  0  0  0  0
   17.6219    3.8898   15.0856 N   0  0  0  0  0  0  0  0  0  0  0  0
  1  2  1  0
  2  3  1  0
  3  4  1  0
  4  5  2  0
  5  6  1  0
  6  7  2  0
  7  8  1  0
  8  9  2  0
  9 10  1  0
 10 11  2  0
 10 12  1  0
 12 13  1  0
 14 12  1  1
 14 15  1  0
 15 16  1  0
 16 17  1  0
 17 18  2  0
 17 19  1  0
 19 20  1  0
  9  4  1  0
 20 14  1  0
M  END
>  <submitter_email>  (21) 
None

>  <original ID>  (21) 
CTECJTBKOFPTMY-SNVBAGLBSA-N

>  <ref_url>  (21) 
None

>  <ref_mols>  (21) 
cx0522a,c0522a,c1135a

>  <alias>  (21) 
None

>  <inchikey>  (21) 
CTECJTBKOFPTMY-SNVBAGLBSA-N

>  <HIPPO ID>  (21) 
6245

>  <ref_pdb>  (21) 
c0300a

>  <generation_date>  (21) 
None

>  <submitter_name>  (21) 
None

>  <method>  (21) 
None

>  <tags>  (21) 
['Syndirella base']

>  <original SMILES>  (21) 
CCOc1ncccc1C(=O)N(C)[C@@H]1CCC(=O)NN1

$$$$
CTECJTBKOFPTMY-JTQLQIEISA-N
     RDKit          3D

 20 21  0  0  0  0  0  0  0  0999 V2000
   20.5081    1.4486   16.0083 C   0  0  0  0  0  0  0  0  0  0  0  0
   19.4541    0.5928   16.6764 C   0  0  0  0  0  0  0  0  0  0  0  0
   18.2418    1.3440   16.7011 O   0  0  0  0  0  0  0  0  0  0  0  0
   17.1706    0.6426   17.2138 C   0  0  0  0  0  0  0  0  0  0  0  0
   17.3608   -0.6713   17.5133 N   0  0  0  0  0  0  0  0  0  0  0  0
   16.3329   -1.3118   18.1075 C   0  0  0  0  0  0  0  0  0  0  0  0
   15.1365   -0.7018   18.4268 C   0  0  0  0  0  0  0  0  0  0  0  0
   14.9600    0.6359   18.0884 C   0  0  0  0  0  0  0  0  0  0  0  0
   15.9783    1.3262   17.4274 C   0  0  0  0  0  0  0  0  0  0  0  0
   15.7936    2.7716   17.1606 C   0  0  0  0  0  0  0  0  0  0  0  0
   15.4449    3.4554   18.1288 O   0  0  0  0  0  0  0  0  0  0  0  0
   15.9779    3.3439   15.8838 N   0  0  0  0  0  0  0  0  0  0  0  0
   15.9081    4.7939   15.8153 C   0  0  0  0  0  0  0  0  0  0  0  0
   16.0235    2.5800   14.6325 C   0  0  1  0  0  0  0  0  0  0  0  0
   15.2886    3.1571   13.4163 C   0  0  0  0  0  0  0  0  0  0  0  0
   16.0419    4.2088   12.6085 C   0  0  0  0  0  0  0  0  0  0  0  0
   17.5404    4.0411   12.5823 C   0  0  0  0  0  0  0  0  0  0  0  0
   18.2521    4.5996   11.7421 O   0  0  0  0  0  0  0  0  0  0  0  0
   18.0982    3.3548   13.6287 N   0  0  0  0  0  0  0  0  0  0  0  0
   17.4081    2.3306   14.2789 N   0  0  0  0  0  0  0  0  0  0  0  0
  1  2  1  0
  2  3  1  0
  3  4  1  0
  4  5  2  0
  5  6  1  0
  6  7  2  0
  7  8  1  0
  8  9  2  0
  9 10  1  0
 10 11  2  0
 10 12  1  0
 12 13  1  0
 14 12  1  1
 14 15  1  0
 15 16  1  0
 16 17  1  0
 17 18  2  0
 17 19  1  0
 19 20  1  0
  9  4  1  0
 20 14  1  0
M  END
>  <submitter_email>  (22) 
None

>  <original ID>  (22) 
CTECJTBKOFPTMY-JTQLQIEISA-N

>  <ref_url>  (22) 
None

>  <ref_mols>  (22) 
cx0522a,c0522a,c1135a

>  <alias>  (22) 
None

>  <inchikey>  (22) 
CTECJTBKOFPTMY-JTQLQIEISA-N

>  <HIPPO ID>  (22) 
6246

>  <ref_pdb>  (22) 
c0300a

>  <generation_date>  (22) 
None

>  <submitter_name>  (22) 
None

>  <method>  (22) 
None

>  <tags>  (22) 
['Syndirella base']

>  <original SMILES>  (22) 
CCOc1ncccc1C(=O)N(C)[C@H]1CCC(=O)NN1

$$$$
SCMCRGMETQKMMQ-DTWKUNHWSA-N
     RDKit          3D

 22 25  0  0  0  0  0  0  0  0999 V2000
   14.7168   12.2415   11.9801 C   0  0  0  0  0  0  0  0  0  0  0  0
   14.8263   10.9583   11.2473 C   0  0  0  0  0  0  0  0  0  0  0  0
   14.9829   10.9527    9.9224 N   0  0  0  0  0  0  0  0  0  0  0  0
   14.9133    9.3515    9.4518 S   0  0  0  0  0  0  0  0  0  0  0  0
   14.6646    8.7704   11.0531 C   0  0  0  0  0  0  0  0  0  0  0  0
   14.4113    7.4679   11.3383 N   0  0  0  0  0  0  0  0  0  0  0  0
   14.7704    6.9917   12.6555 C   0  0  2  0  0  0  0  0  0  0  0  0
   15.5341    5.6765   12.5907 C   0  0  0  0  0  0  0  0  0  0  0  0
   15.6038    5.2860   14.0540 C   0  0  0  0  0  0  0  0  0  0  0  0
   14.2129    5.6122   14.5684 C   0  0  0  0  0  0  0  0  0  0  0  0
   13.6499    6.7453   13.6774 C   0  0  2  0  0  0  0  0  0  0  0  0
   12.2426    6.3872   13.2828 C   0  0  0  0  0  0  0  0  0  0  0  0
   11.7848    5.4766   12.3494 C   0  0  0  0  0  0  0  0  0  0  0  0
   10.1101    5.1743   12.5986 S   0  0  0  0  0  0  0  0  0  0  0  0
   10.0917    6.3101   13.8720 C   0  0  0  0  0  0  0  0  0  0  0  0
    8.7894    6.6543   14.7068 C   0  0  0  0  0  0  0  0  0  0  0  0
    8.7378    7.7724   15.5111 N   0  0  0  0  0  0  0  0  0  0  0  0
    7.4859    7.8005   15.9061 C   0  0  0  0  0  0  0  0  0  0  0  0
    6.8305    6.7128   15.4263 N   0  0  0  0  0  0  0  0  0  0  0  0
    7.6399    5.9596   14.6583 N   0  0  0  0  0  0  0  0  0  0  0  0
   11.2408    6.9221   14.0942 N   0  0  0  0  0  0  0  0  0  0  0  0
   14.7210    9.7515   11.9288 N   0  0  0  0  0  0  0  0  0  0  0  0
  1  2  1  0
  2  3  2  0
  3  4  1  0
  4  5  1  0
  5  6  1  0
  7  6  1  6
  7  8  1  0
  8  9  1  0
  9 10  1  0
 10 11  1  0
 11 12  1  6
 12 13  2  0
 13 14  1  0
 14 15  1  0
 15 16  1  0
 16 17  1  0
 17 18  2  0
 18 19  1  0
 19 20  1  0
 15 21  2  0
  5 22  2  0
 22  2  1  0
 11  7  1  0
 21 12  1  0
 20 16  2  0
M  END
>  <submitter_email>  (23) 
None

>  <original ID>  (23) 
SCMCRGMETQKMMQ-DTWKUNHWSA-N

>  <ref_url>  (23) 
None

>  <ref_mols>  (23) 
c0281a,c0406a

>  <alias>  (23) 
None

>  <inchikey>  (23) 
SCMCRGMETQKMMQ-DTWKUNHWSA-N

>  <HIPPO ID>  (23) 
6247

>  <ref_pdb>  (23) 
c0281a

>  <generation_date>  (23) 
None

>  <submitter_name>  (23) 
None

>  <method>  (23) 
None

>  <tags>  (23) 
['Syndirella base']

>  <original SMILES>  (23) 
Cc1nsc(N[C@@H]2CCC[C@@H]2c2csc(-c3nc[nH]n3)n2)n1

$$$$
SCMCRGMETQKMMQ-IUCAKERBSA-N
     RDKit          3D

 22 25  0  0  0  0  0  0  0  0999 V2000
   14.7168   11.8568   12.3082 C   0  0  0  0  0  0  0  0  0  0  0  0
   14.8390   10.6703   11.4271 C   0  0  0  0  0  0  0  0  0  0  0  0
   15.0029   10.8470   10.1152 N   0  0  0  0  0  0  0  0  0  0  0  0
   14.9643    9.3289    9.4374 S   0  0  0  0  0  0  0  0  0  0  0  0
   14.6813    8.5213   10.9434 C   0  0  0  0  0  0  0  0  0  0  0  0
   14.4116    7.1934   10.9658 N   0  0  0  0  0  0  0  0  0  0  0  0
   14.4271    6.3271   12.1319 C   0  0  1  0  0  0  0  0  0  0  0  0
   15.8147    6.2429   12.7858 C   0  0  0  0  0  0  0  0  0  0  0  0
   15.5842    6.2198   14.2937 C   0  0  0  0  0  0  0  0  0  0  0  0
   14.1087    5.9227   14.4567 C   0  0  0  0  0  0  0  0  0  0  0  0
   13.4652    6.6571   13.2744 C   0  0  2  0  0  0  0  0  0  0  0  0
   12.0318    6.2460   13.1461 C   0  0  0  0  0  0  0  0  0  0  0  0
   11.4500    5.2807   12.3476 C   0  0  0  0  0  0  0  0  0  0  0  0
    9.8046    5.0621   12.7882 S   0  0  0  0  0  0  0  0  0  0  0  0
    9.9557    6.3163   13.9323 C   0  0  0  0  0  0  0  0  0  0  0  0
    8.7484    6.8334   14.7993 C   0  0  0  0  0  0  0  0  0  0  0  0
    7.5234    6.2175   14.8673 N   0  0  0  0  0  0  0  0  0  0  0  0
    6.8095    7.0496   15.5911 C   0  0  0  0  0  0  0  0  0  0  0  0
    7.5724    8.1152   15.9470 N   0  0  0  0  0  0  0  0  0  0  0  0
    8.8310    7.9800   15.4914 N   0  0  0  0  0  0  0  0  0  0  0  0
   11.1502    6.8699   14.0178 N   0  0  0  0  0  0  0  0  0  0  0  0
   14.7263    9.3730   11.9452 N   0  0  0  0  0  0  0  0  0  0  0  0
  1  2  1  0
  2  3  2  0
  3  4  1  0
  4  5  1  0
  5  6  1  0
  7  6  1  6
  7  8  1  0
  8  9  1  0
  9 10  1  0
 10 11  1  0
 11 12  1  6
 12 13  2  0
 13 14  1  0
 14 15  1  0
 15 16  1  0
 16 17  1  0
 17 18  2  0
 18 19  1  0
 19 20  1  0
 15 21  2  0
  5 22  2  0
 22  2  1  0
 11  7  1  0
 21 12  1  0
 20 16  2  0
M  END
>  <submitter_email>  (24) 
None

>  <original ID>  (24) 
SCMCRGMETQKMMQ-IUCAKERBSA-N

>  <ref_url>  (24) 
None

>  <ref_mols>  (24) 
c0281a,c0406a

>  <alias>  (24) 
None

>  <inchikey>  (24) 
SCMCRGMETQKMMQ-IUCAKERBSA-N

>  <HIPPO ID>  (24) 
6248

>  <ref_pdb>  (24) 
c0281a

>  <generation_date>  (24) 
None

>  <submitter_name>  (24) 
None

>  <method>  (24) 
None

>  <tags>  (24) 
['Syndirella base']

>  <original SMILES>  (24) 
Cc1nsc(N[C@H]2CCC[C@@H]2c2csc(-c3nc[nH]n3)n2)n1

$$$$
SCMCRGMETQKMMQ-RKDXNWHRSA-N
     RDKit          3D

 22 25  0  0  0  0  0  0  0  0999 V2000
   14.6800   12.3834   11.9720 C   0  0  0  0  0  0  0  0  0  0  0  0
   14.8319   11.0756   11.2944 C   0  0  0  0  0  0  0  0  0  0  0  0
   14.9530   11.0148    9.9673 N   0  0  0  0  0  0  0  0  0  0  0  0
   14.9835    9.3944    9.5703 S   0  0  0  0  0  0  0  0  0  0  0  0
   14.8097    8.8786   11.2076 C   0  0  0  0  0  0  0  0  0  0  0  0
   14.6566    7.5774   11.5528 N   0  0  0  0  0  0  0  0  0  0  0  0
   14.2975    7.2610   12.9327 C   0  0  2  0  0  0  0  0  0  0  0  0
   15.5780    7.1311   13.7814 C   0  0  0  0  0  0  0  0  0  0  0  0
   15.5631    5.7382   14.3852 C   0  0  0  0  0  0  0  0  0  0  0  0
   14.1019    5.3591   14.3734 C   0  0  0  0  0  0  0  0  0  0  0  0
   13.6003    5.9002   13.0411 C   0  0  1  0  0  0  0  0  0  0  0  0
   12.1023    5.8983   12.9711 C   0  0  0  0  0  0  0  0  0  0  0  0
   11.3836    5.1427   12.0694 C   0  0  0  0  0  0  0  0  0  0  0  0
    9.7467    5.0745   12.5252 S   0  0  0  0  0  0  0  0  0  0  0  0
   10.0638    6.1596   13.8100 C   0  0  0  0  0  0  0  0  0  0  0  0
    8.8593    6.6460   14.7236 C   0  0  0  0  0  0  0  0  0  0  0  0
    8.9258    7.7715   15.5114 N   0  0  0  0  0  0  0  0  0  0  0  0
    7.6882    7.9026   15.9387 C   0  0  0  0  0  0  0  0  0  0  0  0
    6.9283    6.8709   15.4921 N   0  0  0  0  0  0  0  0  0  0  0  0
    7.6530    6.0496   14.7193 N   0  0  0  0  0  0  0  0  0  0  0  0
   11.3212    6.5729   13.9124 N   0  0  0  0  0  0  0  0  0  0  0  0
   14.8033    9.9007   12.0341 N   0  0  0  0  0  0  0  0  0  0  0  0
  1  2  1  0
  2  3  2  0
  3  4  1  0
  4  5  1  0
  5  6  1  0
  7  6  1  6
  7  8  1  0
  8  9  1  0
  9 10  1  0
 10 11  1  0
 11 12  1  1
 12 13  2  0
 13 14  1  0
 14 15  1  0
 15 16  1  0
 16 17  1  0
 17 18  2  0
 18 19  1  0
 19 20  1  0
 15 21  2  0
  5 22  2  0
 22  2  1  0
 11  7  1  0
 21 12  1  0
 20 16  2  0
M  END
>  <submitter_email>  (25) 
None

>  <original ID>  (25) 
SCMCRGMETQKMMQ-RKDXNWHRSA-N

>  <ref_url>  (25) 
None

>  <ref_mols>  (25) 
c0281a,c0406a

>  <alias>  (25) 
None

>  <inchikey>  (25) 
SCMCRGMETQKMMQ-RKDXNWHRSA-N

>  <HIPPO ID>  (25) 
6249

>  <ref_pdb>  (25) 
c0281a

>  <generation_date>  (25) 
None

>  <submitter_name>  (25) 
None

>  <method>  (25) 
None

>  <tags>  (25) 
['Syndirella base']

>  <original SMILES>  (25) 
Cc1nsc(N[C@@H]2CCC[C@H]2c2csc(-c3nc[nH]n3)n2)n1

$$$$
SCMCRGMETQKMMQ-BDAKNGLRSA-N
     RDKit          3D

 22 25  0  0  0  0  0  0  0  0999 V2000
   14.6542   12.5498   11.7221 C   0  0  0  0  0  0  0  0  0  0  0  0
   14.8076   11.1423   11.3001 C   0  0  0  0  0  0  0  0  0  0  0  0
   14.9826   10.8079   10.0191 N   0  0  0  0  0  0  0  0  0  0  0  0
   14.9633    9.1243    9.9742 S   0  0  0  0  0  0  0  0  0  0  0  0
   14.6944    8.9836   11.6745 C   0  0  0  0  0  0  0  0  0  0  0  0
   14.3699    7.9050   12.4103 N   0  0  0  0  0  0  0  0  0  0  0  0
   14.5225    6.5210   12.0662 C   0  0  1  0  0  0  0  0  0  0  0  0
   15.8880    6.0546   12.5789 C   0  0  0  0  0  0  0  0  0  0  0  0
   15.7029    5.8914   14.0896 C   0  0  0  0  0  0  0  0  0  0  0  0
   14.2246    5.5640   14.2906 C   0  0  0  0  0  0  0  0  0  0  0  0
   13.6083    5.6026   12.8921 C   0  0  1  0  0  0  0  0  0  0  0  0
   12.1258    5.7966   12.8402 C   0  0  0  0  0  0  0  0  0  0  0  0
   11.3431    5.1912   11.8804 C   0  0  0  0  0  0  0  0  0  0  0  0
    9.7172    5.1755   12.3652 S   0  0  0  0  0  0  0  0  0  0  0  0
   10.1198    6.1323   13.7276 C   0  0  0  0  0  0  0  0  0  0  0  0
    8.9421    6.6179   14.6792 C   0  0  0  0  0  0  0  0  0  0  0  0
    9.0381    7.7195   15.4978 N   0  0  0  0  0  0  0  0  0  0  0  0
    7.8032    7.8693   15.9289 C   0  0  0  0  0  0  0  0  0  0  0  0
    7.0191    6.8641   15.4646 N   0  0  0  0  0  0  0  0  0  0  0  0
    7.7213    6.0508   14.6654 N   0  0  0  0  0  0  0  0  0  0  0  0
   11.4040    6.4535   13.8425 N   0  0  0  0  0  0  0  0  0  0  0  0
   14.7078   10.1573   12.2580 N   0  0  0  0  0  0  0  0  0  0  0  0
  1  2  1  0
  2  3  2  0
  3  4  1  0
  4  5  1  0
  5  6  1  0
  7  6  1  1
  7  8  1  0
  8  9  1  0
  9 10  1  0
 10 11  1  0
 11 12  1  1
 12 13  2  0
 13 14  1  0
 14 15  1  0
 15 16  1  0
 16 17  1  0
 17 18  2  0
 18 19  1  0
 19 20  1  0
 15 21  2  0
  5 22  2  0
 22  2  1  0
 11  7  1  0
 21 12  1  0
 20 16  2  0
M  END
>  <submitter_email>  (26) 
None

>  <original ID>  (26) 
SCMCRGMETQKMMQ-BDAKNGLRSA-N

>  <ref_url>  (26) 
None

>  <ref_mols>  (26) 
c0281a,c0406a

>  <alias>  (26) 
None

>  <inchikey>  (26) 
SCMCRGMETQKMMQ-BDAKNGLRSA-N

>  <HIPPO ID>  (26) 
6250

>  <ref_pdb>  (26) 
c0281a

>  <generation_date>  (26) 
None

>  <submitter_name>  (26) 
None

>  <method>  (26) 
None

>  <tags>  (26) 
['Syndirella base']

>  <original SMILES>  (26) 
Cc1nsc(N[C@H]2CCC[C@H]2c2csc(-c3nc[nH]n3)n2)n1

$$$$
QQERROZMPKKQER-UHFFFAOYSA-N
     RDKit          3D

 16 17  0  0  0  0  0  0  0  0999 V2000
   13.9020    8.9383    9.0983 C   0  0  0  0  0  0  0  0  0  0  0  0
   14.6703    8.3405   10.2557 C   0  0  0  0  0  0  0  0  0  0  0  0
   14.4865    6.8874   10.4794 C   0  0  0  0  0  0  0  0  0  0  0  0
   15.2881    6.0778   11.1361 N   0  0  0  0  0  0  0  0  0  0  0  0
   14.7503    4.8440   10.8572 C   0  0  0  0  0  0  0  0  0  0  0  0
   15.4574    3.5660   11.1690 C   0  0  0  0  0  0  0  0  0  0  0  0
   16.1233    3.5930   12.4794 N   0  0  0  0  0  0  0  0  0  0  0  0
   15.5405    2.9290   13.5427 C   0  0  0  0  0  0  0  0  0  0  0  0
   16.1190    2.8649   14.7442 C   0  0  0  0  0  0  0  0  0  0  0  0
   17.3720    3.5306   14.9626 C   0  0  0  0  0  0  0  0  0  0  0  0
   18.1084    3.4454   16.6687 Br  0  0  0  0  0  0  0  0  0  0  0  0
   17.9714    4.1819   13.9599 C   0  0  0  0  0  0  0  0  0  0  0  0
   17.3781    4.1783   12.5981 C   0  0  0  0  0  0  0  0  0  0  0  0
   18.0274    4.6782   11.6786 O   0  0  0  0  0  0  0  0  0  0  0  0
   13.6192    4.8813   10.1346 N   0  0  0  0  0  0  0  0  0  0  0  0
   13.4358    6.2469    9.8918 O   0  0  0  0  0  0  0  0  0  0  0  0
  1  2  1  0
  2  3  1  0
  3  4  2  0
  4  5  1  0
  5  6  1  0
  6  7  1  0
  7  8  1  0
  8  9  2  0
  9 10  1  0
 10 11  1  0
 10 12  2  0
 12 13  1  0
 13 14  2  0
  5 15  2  0
 15 16  1  0
 16  3  1  0
 13  7  1  0
M  END
>  <submitter_email>  (27) 
None

>  <original ID>  (27) 
QQERROZMPKKQER-UHFFFAOYSA-N

>  <ref_url>  (27) 
None

>  <ref_mols>  (27) 
c0316a,c1091a

>  <alias>  (27) 
None

>  <inchikey>  (27) 
QQERROZMPKKQER-UHFFFAOYSA-N

>  <HIPPO ID>  (27) 
6251

>  <ref_pdb>  (27) 
c0300a

>  <generation_date>  (27) 
None

>  <submitter_name>  (27) 
None

>  <method>  (27) 
None

>  <tags>  (27) 
['Syndirella base']

>  <original SMILES>  (27) 
CCc1nc(Cn2ccc(Br)cc2=O)no1

$$$$
LKDGGWMXOHPRMI-OAHLLOKOSA-N
     RDKit          3D

 21 23  0  0  0  0  0  0  0  0999 V2000
   17.9221    4.8831   14.2755 C   0  0  0  0  0  0  0  0  0  0  0  0
   17.4281    4.0003   15.3283 N   0  0  0  0  0  0  0  0  0  0  0  0
   16.4765    4.5451   16.2006 C   0  0  0  0  0  0  0  0  0  0  0  0
   16.3749    4.0905   17.5168 C   0  0  0  0  0  0  0  0  0  0  0  0
   15.3846    4.6006   18.3489 C   0  0  0  0  0  0  0  0  0  0  0  0
   14.4952    5.5469   17.9753 N   0  0  0  0  0  0  0  0  0  0  0  0
   14.6384    6.0213   16.7236 C   0  0  0  0  0  0  0  0  0  0  0  0
   15.5866    5.5584   15.8204 C   0  0  0  0  0  0  0  0  0  0  0  0
   17.3134    2.5717   14.8903 C   0  0  2  0  0  0  0  0  0  0  0  0
   15.9016    2.0394   14.8872 C   0  0  0  0  0  0  0  0  0  0  0  0
   15.8272    1.1800   16.1225 C   0  0  0  0  0  0  0  0  0  0  0  0
   17.1644    0.8400   16.5049 N   0  0  0  0  0  0  0  0  0  0  0  0
   17.3431   -0.2499   17.3986 C   0  0  0  0  0  0  0  0  0  0  0  0
   18.5049   -1.0197   17.3976 C   0  0  0  0  0  0  0  0  0  0  0  0
   18.5906   -2.1720   18.1943 C   0  0  0  0  0  0  0  0  0  0  0  0
   17.5307   -2.5570   19.0181 C   0  0  0  0  0  0  0  0  0  0  0  0
   16.3848   -1.7771   19.0676 C   0  0  0  0  0  0  0  0  0  0  0  0
   16.3013   -0.6373   18.2754 C   0  0  0  0  0  0  0  0  0  0  0  0
   15.1961    0.1140   18.4105 F   0  0  0  0  0  0  0  0  0  0  0  0
   18.0943    1.5583   15.7497 C   0  0  0  0  0  0  0  0  0  0  0  0
   19.3117    1.4298   15.7339 O   0  0  0  0  0  0  0  0  0  0  0  0
  1  2  1  0
  2  3  1  0
  3  4  2  0
  4  5  1  0
  5  6  2  0
  6  7  1  0
  7  8  2  0
  9  2  1  1
  9 10  1  0
 10 11  1  0
 11 12  1  0
 12 13  1  0
 13 14  2  0
 14 15  1  0
 15 16  2  0
 16 17  1  0
 17 18  2  0
 18 19  1  0
 12 20  1  0
 20 21  2  0
  8  3  1  0
 20  9  1  0
 18 13  1  0
M  END
>  <submitter_email>  (28) 
None

>  <original ID>  (28) 
LKDGGWMXOHPRMI-OAHLLOKOSA-N

>  <ref_url>  (28) 
None

>  <ref_mols>  (28) 
cx0398a,cx0824a,c0398a,c0824a

>  <alias>  (28) 
None

>  <inchikey>  (28) 
LKDGGWMXOHPRMI-OAHLLOKOSA-N

>  <HIPPO ID>  (28) 
6252

>  <ref_pdb>  (28) 
c0300a

>  <generation_date>  (28) 
None

>  <submitter_name>  (28) 
None

>  <method>  (28) 
None

>  <tags>  (28) 
['Syndirella base']

>  <original SMILES>  (28) 
CN(c1ccncc1)[C@@H]1CCN(c2ccccc2F)C1=O

$$$$
LKDGGWMXOHPRMI-OAHLLOKOSA-N
     RDKit          3D

 21 23  0  0  0  0  0  0  0  0999 V2000
   18.5229    4.9645   15.9786 C   0  0  0  0  0  0  0  0  0  0  0  0
   17.2972    4.2394   15.6359 N   0  0  0  0  0  0  0  0  0  0  0  0
   16.2174    4.6806   16.4142 C   0  0  0  0  0  0  0  0  0  0  0  0
   15.9652    4.2688   17.7222 C   0  0  0  0  0  0  0  0  0  0  0  0
   14.8764    4.8018   18.3994 C   0  0  0  0  0  0  0  0  0  0  0  0
   14.0289    5.7149   17.8732 N   0  0  0  0  0  0  0  0  0  0  0  0
   14.3119    6.1304   16.6214 C   0  0  0  0  0  0  0  0  0  0  0  0
   15.3686    5.6467   15.8669 C   0  0  0  0  0  0  0  0  0  0  0  0
   17.5186    2.7887   15.4349 C   0  0  2  0  0  0  0  0  0  0  0  0
   16.3059    2.0836   14.8610 C   0  0  0  0  0  0  0  0  0  0  0  0
   15.8948    1.1408   15.9605 C   0  0  0  0  0  0  0  0  0  0  0  0
   17.0807    0.8461   16.6949 N   0  0  0  0  0  0  0  0  0  0  0  0
   17.0899   -0.1642   17.6793 C   0  0  0  0  0  0  0  0  0  0  0  0
   18.2729   -0.8581   17.9426 C   0  0  0  0  0  0  0  0  0  0  0  0
   18.2593   -1.9742   18.7886 C   0  0  0  0  0  0  0  0  0  0  0  0
   17.0744   -2.3844   19.4023 C   0  0  0  0  0  0  0  0  0  0  0  0
   15.9034   -1.6684   19.1819 C   0  0  0  0  0  0  0  0  0  0  0  0
   15.9153   -0.5744   18.3260 C   0  0  0  0  0  0  0  0  0  0  0  0
   14.7811    0.1265   18.1899 F   0  0  0  0  0  0  0  0  0  0  0  0
   17.9156    1.9568   16.6660 C   0  0  0  0  0  0  0  0  0  0  0  0
   18.7762    2.2477   17.4832 O   0  0  0  0  0  0  0  0  0  0  0  0
  1  2  1  0
  2  3  1  0
  3  4  2  0
  4  5  1  0
  5  6  2  0
  6  7  1  0
  7  8  2  0
  9  2  1  1
  9 10  1  0
 10 11  1  0
 11 12  1  0
 12 13  1  0
 13 14  2  0
 14 15  1  0
 15 16  2  0
 16 17  1  0
 17 18  2  0
 18 19  1  0
 12 20  1  0
 20 21  2  0
  8  3  1  0
 20  9  1  0
 18 13  1  0
M  END
>  <submitter_email>  (29) 
None

>  <original ID>  (29) 
LKDGGWMXOHPRMI-OAHLLOKOSA-N

>  <ref_url>  (29) 
None

>  <ref_mols>  (29) 
cx0398a,cx0824a,c0398a,c0824a

>  <alias>  (29) 
None

>  <inchikey>  (29) 
LKDGGWMXOHPRMI-OAHLLOKOSA-N

>  <HIPPO ID>  (29) 
6253

>  <ref_pdb>  (29) 
c0300a

>  <generation_date>  (29) 
None

>  <submitter_name>  (29) 
None

>  <method>  (29) 
None

>  <tags>  (29) 
['Syndirella base']

>  <original SMILES>  (29) 
CN(c1ccncc1)[C@@H]1CCN(c2ccccc2F)C1=O

$$$$
TYBDSUPMDPIPBB-UHFFFAOYSA-N
     RDKit          3D

 28 30  0  0  0  0  0  0  0  0999 V2000
   14.7840   17.0777   13.4177 N   0  0  0  0  0  0  0  0  0  0  0  0
   14.9925   15.8827   14.0480 C   0  0  0  0  0  0  0  0  0  0  0  0
   15.3149   15.8833   15.2253 O   0  0  0  0  0  0  0  0  0  0  0  0
   14.7841   14.8061   13.2266 N   0  0  0  0  0  0  0  0  0  0  0  0
   14.7476   13.4407   13.5839 C   0  0  0  0  0  0  0  0  0  0  0  0
   14.9165   12.9980   14.8959 C   0  0  0  0  0  0  0  0  0  0  0  0
   15.0053   11.6366   15.1723 C   0  0  0  0  0  0  0  0  0  0  0  0
   14.9503   10.7113   14.1348 C   0  0  0  0  0  0  0  0  0  0  0  0
   14.7795   11.1344   12.8106 C   0  0  0  0  0  0  0  0  0  0  0  0
   14.9103   10.1335   11.8239 N   0  0  0  0  0  0  0  0  0  0  0  0
   14.8723   10.2433   10.4400 C   0  0  0  0  0  0  0  0  0  0  0  0
   14.7033   11.2811    9.8110 O   0  0  0  0  0  0  0  0  0  0  0  0
   15.0639    8.9034    9.7290 C   0  0  0  0  0  0  0  0  0  0  0  0
   13.9755    7.9344   10.1311 C   0  0  0  0  0  0  0  0  0  0  0  0
   14.3089    6.5106   10.1955 C   0  0  0  0  0  0  0  0  0  0  0  0
   15.1688    5.8920   10.9732 N   0  0  0  0  0  0  0  0  0  0  0  0
   14.8794    4.5729   10.7014 C   0  0  0  0  0  0  0  0  0  0  0  0
   15.6595    3.4155   11.2078 C   0  0  0  0  0  0  0  0  0  0  0  0
   16.2086    3.6157   12.5480 N   0  0  0  0  0  0  0  0  0  0  0  0
   15.5907    3.0111   13.6302 C   0  0  0  0  0  0  0  0  0  0  0  0
   16.0996    3.0835   14.8639 C   0  0  0  0  0  0  0  0  0  0  0  0
   17.3105    3.8215   15.0915 C   0  0  0  0  0  0  0  0  0  0  0  0
   17.9539    4.3951   14.0675 C   0  0  0  0  0  0  0  0  0  0  0  0
   17.4298    4.2651   12.6796 C   0  0  0  0  0  0  0  0  0  0  0  0
   18.0891    4.7321   11.7497 O   0  0  0  0  0  0  0  0  0  0  0  0
   13.8805    4.3900    9.8261 N   0  0  0  0  0  0  0  0  0  0  0  0
   13.4801    5.6769    9.5157 O   0  0  0  0  0  0  0  0  0  0  0  0
   14.6017   12.4966   12.5479 C   0  0  0  0  0  0  0  0  0  0  0  0
  1  2  1  0
  2  3  2  0
  2  4  1  0
  4  5  1  0
  5  6  2  0
  6  7  1  0
  7  8  2  0
  8  9  1  0
  9 10  1  0
 10 11  1  0
 11 12  2  0
 11 13  1  0
 13 14  1  0
 14 15  1  0
 15 16  2  0
 16 17  1  0
 17 18  1  0
 18 19  1  0
 19 20  1  0
 20 21  2  0
 21 22  1  0
 22 23  2  0
 23 24  1  0
 24 25  2  0
 17 26  2  0
 26 27  1  0
  9 28  2  0
 28  5  1  0
 27 15  1  0
 24 19  1  0
M  END
>  <submitter_email>  (30) 
None

>  <original ID>  (30) 
TYBDSUPMDPIPBB-UHFFFAOYSA-N

>  <ref_url>  (30) 
None

>  <ref_mols>  (30) 
cx0544a,c0316a,c0544a

>  <alias>  (30) 
None

>  <inchikey>  (30) 
TYBDSUPMDPIPBB-UHFFFAOYSA-N

>  <HIPPO ID>  (30) 
6254

>  <ref_pdb>  (30) 
c0300a

>  <generation_date>  (30) 
None

>  <submitter_name>  (30) 
None

>  <method>  (30) 
None

>  <tags>  (30) 
['Syndirella base']

>  <original SMILES>  (30) 
NC(=O)Nc1cccc(NC(=O)CCc2nc(Cn3ccccc3=O)no2)c1

$$$$
XMHJIXAUMMKGLT-UHFFFAOYSA-N
     RDKit          3D

 14 14  0  0  0  0  0  0  0  0999 V2000
   21.5519   11.4958   10.5348 C   0  0  0  0  0  0  0  0  0  0  0  0
   20.1365   11.3577   10.4487 O   0  0  0  0  0  0  0  0  0  0  0  0
   19.4711   12.4104   11.1332 C   0  0  0  0  0  0  0  0  0  0  0  0
   17.9807   12.1214   11.3335 C   0  0  0  0  0  0  0  0  0  0  0  0
   17.2942   12.8618   12.0380 O   0  0  0  0  0  0  0  0  0  0  0  0
   17.5192   11.0308   10.6314 N   0  0  0  0  0  0  0  0  0  0  0  0
   16.3620   10.2477   10.8378 C   0  0  0  0  0  0  0  0  0  0  0  0
   16.0311    9.3628    9.8023 C   0  0  0  0  0  0  0  0  0  0  0  0
   15.0851    8.3600    9.9883 C   0  0  0  0  0  0  0  0  0  0  0  0
   14.5532    8.1683   11.2419 C   0  0  0  0  0  0  0  0  0  0  0  0
   13.7313    7.0978   11.4334 O   0  0  0  0  0  0  0  0  0  0  0  0
   14.8193    9.0770   12.2590 C   0  0  0  0  0  0  0  0  0  0  0  0
   15.6117   10.2066   12.0232 C   0  0  0  0  0  0  0  0  0  0  0  0
   15.7802   11.0980   13.0883 N   0  0  0  0  0  0  0  0  0  0  0  0
  1  2  1  0
  2  3  1  0
  3  4  1  0
  4  5  2  0
  4  6  1  0
  6  7  1  0
  7  8  2  0
  8  9  1  0
  9 10  2  0
 10 11  1  0
 10 12  1  0
 12 13  2  0
 13 14  1  0
 13  7  1  0
M  END
>  <submitter_email>  (31) 
None

>  <original ID>  (31) 
XMHJIXAUMMKGLT-UHFFFAOYSA-N

>  <ref_url>  (31) 
None

>  <ref_mols>  (31) 
cx0935a,c0935a,c1353a

>  <alias>  (31) 
None

>  <inchikey>  (31) 
XMHJIXAUMMKGLT-UHFFFAOYSA-N

>  <HIPPO ID>  (31) 
6255

>  <ref_pdb>  (31) 
c0270a

>  <generation_date>  (31) 
None

>  <submitter_name>  (31) 
None

>  <method>  (31) 
None

>  <tags>  (31) 
['Syndirella base']

>  <original SMILES>  (31) 
COCC(=O)Nc1ccc(O)cc1N

$$$$
KIULBMGWDSJTMM-UHFFFAOYSA-N
     RDKit          3D

 18 19  0  0  0  0  0  0  0  0999 V2000
   14.9021    0.4456   18.4976 C   0  0  0  0  0  0  0  0  0  0  0  0
   15.9888   -0.5892   18.4213 C   0  0  0  0  0  0  0  0  0  0  0  0
   15.7891   -1.7874   19.1151 C   0  0  0  0  0  0  0  0  0  0  0  0
   16.7735   -2.7624   19.1004 C   0  0  0  0  0  0  0  0  0  0  0  0
   17.9465   -2.6313   18.4474 N   0  0  0  0  0  0  0  0  0  0  0  0
   18.1259   -1.4649   17.7872 C   0  0  0  0  0  0  0  0  0  0  0  0
   17.1866   -0.4368   17.7133 C   0  0  0  0  0  0  0  0  0  0  0  0
   17.5157    0.7348   17.0015 N   0  0  0  0  0  0  0  0  0  0  0  0
   16.6807    1.2356   16.0153 C   0  0  0  0  0  0  0  0  0  0  0  0
   15.7680    0.5991   15.5134 O   0  0  0  0  0  0  0  0  0  0  0  0
   17.0165    2.6764   15.6608 C   0  0  0  0  0  0  0  0  0  0  0  0
   16.7437    3.0596   14.2405 C   0  0  0  0  0  0  0  0  0  0  0  0
   15.5122    3.0676   13.7072 C   0  0  0  0  0  0  0  0  0  0  0  0
   15.3036    3.5075   12.3524 C   0  0  0  0  0  0  0  0  0  0  0  0
   16.3250    3.9382   11.6075 C   0  0  0  0  0  0  0  0  0  0  0  0
   17.6759    3.9832   12.2032 C   0  0  0  0  0  0  0  0  0  0  0  0
   18.6130    4.4726   11.5794 O   0  0  0  0  0  0  0  0  0  0  0  0
   17.8012    3.5177   13.4833 N   0  0  0  0  0  0  0  0  0  0  0  0
  1  2  1  0
  2  3  2  0
  3  4  1  0
  4  5  2  0
  5  6  1  0
  6  7  2  0
  7  8  1  0
  8  9  1  0
  9 10  2  0
  9 11  1  0
 11 12  1  0
 12 13  2  0
 13 14  1  0
 14 15  2  0
 15 16  1  0
 16 17  2  0
 16 18  1  0
  7  2  1  0
 18 12  1  0
M  END
>  <submitter_email>  (32) 
None

>  <original ID>  (32) 
KIULBMGWDSJTMM-UHFFFAOYSA-N

>  <ref_url>  (32) 
None

>  <ref_mols>  (32) 
cx0305a,c0305a,c1135a

>  <alias>  (32) 
None

>  <inchikey>  (32) 
KIULBMGWDSJTMM-UHFFFAOYSA-N

>  <HIPPO ID>  (32) 
6256

>  <ref_pdb>  (32) 
c0300a

>  <generation_date>  (32) 
None

>  <submitter_name>  (32) 
None

>  <method>  (32) 
None

>  <tags>  (32) 
['Syndirella base']

>  <original SMILES>  (32) 
Cc1ccncc1NC(=O)Cc1cccc(=O)[nH]1

$$$$
RGWZNWCCBDMABV-UHFFFAOYSA-N
     RDKit          3D

 15 17  0  0  0  0  0  0  0  0999 V2000
   13.9793   13.4345   11.7725 N   0  0  0  0  0  0  0  0  0  0  0  0
   14.4444   12.2118   12.1973 C   0  0  0  0  0  0  0  0  0  0  0  0
   14.5523   11.9626   13.5685 C   0  0  0  0  0  0  0  0  0  0  0  0
   14.9011   10.6945   14.0713 C   0  0  0  0  0  0  0  0  0  0  0  0
   15.1454   10.5353   15.5043 C   0  0  0  0  0  0  0  0  0  0  0  0
   15.2266    9.3397   16.2658 C   0  0  0  0  0  0  0  0  0  0  0  0
   15.4824    9.7394   17.5552 C   0  0  0  0  0  0  0  0  0  0  0  0
   15.5544   11.0975   17.5163 N   0  0  0  0  0  0  0  0  0  0  0  0
   15.3413   11.6046   16.2951 N   0  0  0  0  0  0  0  0  0  0  0  0
   15.0277    9.6275   13.1766 C   0  0  0  0  0  0  0  0  0  0  0  0
   14.8957    9.8906   11.8222 C   0  0  0  0  0  0  0  0  0  0  0  0
   14.6403   11.1498   11.3401 C   0  0  0  0  0  0  0  0  0  0  0  0
   14.5927   11.1818    9.9765 O   0  0  0  0  0  0  0  0  0  0  0  0
   14.8832    9.8042    9.6528 C   0  0  0  0  0  0  0  0  0  0  0  0
   14.9908    8.9664   10.8226 O   0  0  0  0  0  0  0  0  0  0  0  0
  1  2  1  0
  2  3  2  0
  3  4  1  0
  4  5  1  0
  5  6  1  0
  6  7  2  0
  7  8  1  0
  8  9  1  0
  4 10  2  0
 10 11  1  0
 11 12  2  0
 12 13  1  0
 13 14  1  0
 14 15  1  0
 12  2  1  0
  9  5  2  0
 15 11  1  0
M  END
>  <submitter_email>  (33) 
None

>  <original ID>  (33) 
RGWZNWCCBDMABV-UHFFFAOYSA-N

>  <ref_url>  (33) 
None

>  <ref_mols>  (33) 
cx1338a,cx0864a,c0864a,c1338a

>  <alias>  (33) 
None

>  <inchikey>  (33) 
RGWZNWCCBDMABV-UHFFFAOYSA-N

>  <HIPPO ID>  (33) 
6257

>  <ref_pdb>  (33) 
c0300a

>  <generation_date>  (33) 
None

>  <submitter_name>  (33) 
None

>  <method>  (33) 
None

>  <tags>  (33) 
['Syndirella base']

>  <original SMILES>  (33) 
Nc1cc(-c2cc[nH]n2)cc2c1OCO2

$$$$
FCNMMRVSBYHGGR-UHFFFAOYSA-N
     RDKit          3D

 18 20  0  0  0  0  0  0  0  0999 V2000
   21.8983   16.0277   14.6764 C   0  0  0  0  0  0  0  0  0  0  0  0
   21.3328   14.9747   13.8787 N   0  0  0  0  0  0  0  0  0  0  0  0
   21.5527   14.9064   12.5241 C   0  0  0  0  0  0  0  0  0  0  0  0
   22.1822   15.7609   11.9174 O   0  0  0  0  0  0  0  0  0  0  0  0
   20.9557   13.7274   11.8535 C   0  0  0  0  0  0  0  0  0  0  0  0
   21.6835   12.8511   11.0304 C   0  0  0  0  0  0  0  0  0  0  0  0
   23.0844   13.0375   10.6448 C   0  0  0  0  0  0  0  0  0  0  0  0
   24.1833   13.5568   11.3735 C   0  0  0  0  0  0  0  0  0  0  0  0
   25.2635   13.4754   10.5267 C   0  0  0  0  0  0  0  0  0  0  0  0
   24.7959   12.9012    9.3849 N   0  0  0  0  0  0  0  0  0  0  0  0
   23.4797   12.6589    9.4204 N   0  0  0  0  0  0  0  0  0  0  0  0
   21.0167   11.7161   10.4915 C   0  0  0  0  0  0  0  0  0  0  0  0
   19.6499   11.4993   10.6750 C   0  0  0  0  0  0  0  0  0  0  0  0
   18.9646   12.4088   11.4384 C   0  0  0  0  0  0  0  0  0  0  0  0
   19.5931   13.4829   12.0263 C   0  0  0  0  0  0  0  0  0  0  0  0
   18.7064   14.2297   12.7510 O   0  0  0  0  0  0  0  0  0  0  0  0
   17.4795   13.5039   12.5558 C   0  0  0  0  0  0  0  0  0  0  0  0
   17.6379   12.3409   11.7294 O   0  0  0  0  0  0  0  0  0  0  0  0
  1  2  1  0
  2  3  1  0
  3  4  2  0
  3  5  1  0
  5  6  2  0
  6  7  1  0
  7  8  1  0
  8  9  2  0
  9 10  1  0
 10 11  1  0
  6 12  1  0
 12 13  2  0
 13 14  1  0
 14 15  2  0
 15 16  1  0
 16 17  1  0
 17 18  1  0
 15  5  1  0
 11  7  2  0
 18 14  1  0
M  END
>  <submitter_email>  (34) 
None

>  <original ID>  (34) 
FCNMMRVSBYHGGR-UHFFFAOYSA-N

>  <ref_url>  (34) 
None

>  <ref_mols>  (34) 
c0399a,c0399f,c0864d,c0864a

>  <alias>  (34) 
None

>  <inchikey>  (34) 
FCNMMRVSBYHGGR-UHFFFAOYSA-N

>  <HIPPO ID>  (34) 
6258

>  <ref_pdb>  (34) 
c0270a

>  <generation_date>  (34) 
None

>  <submitter_name>  (34) 
None

>  <method>  (34) 
None

>  <tags>  (34) 
['Syndirella base']

>  <original SMILES>  (34) 
CNC(=O)c1c(-c2cc[nH]n2)ccc2c1OCO2

$$$$
RGWZNWCCBDMABV-UHFFFAOYSA-N
     RDKit          3D

 15 17  0  0  0  0  0  0  0  0999 V2000
   14.0132   13.4001   11.7471 N   0  0  0  0  0  0  0  0  0  0  0  0
   14.4524   12.1775   12.1803 C   0  0  0  0  0  0  0  0  0  0  0  0
   14.5608   11.9359   13.5527 C   0  0  0  0  0  0  0  0  0  0  0  0
   14.9018   10.6688   14.0623 C   0  0  0  0  0  0  0  0  0  0  0  0
   15.1434   10.5158   15.4965 C   0  0  0  0  0  0  0  0  0  0  0  0
   15.2052    9.3239   16.2656 C   0  0  0  0  0  0  0  0  0  0  0  0
   15.4647    9.7277   17.5531 C   0  0  0  0  0  0  0  0  0  0  0  0
   15.5560   11.0844   17.5058 N   0  0  0  0  0  0  0  0  0  0  0  0
   15.3571   11.5867   16.2807 N   0  0  0  0  0  0  0  0  0  0  0  0
   15.0238    9.5966   13.1728 C   0  0  0  0  0  0  0  0  0  0  0  0
   14.8968    9.8543   11.8165 C   0  0  0  0  0  0  0  0  0  0  0  0
   14.6519   11.1129   11.3282 C   0  0  0  0  0  0  0  0  0  0  0  0
   14.6149   11.1419    9.9642 O   0  0  0  0  0  0  0  0  0  0  0  0
   14.8841    9.7596    9.6472 C   0  0  0  0  0  0  0  0  0  0  0  0
   14.9917    8.9260   10.8206 O   0  0  0  0  0  0  0  0  0  0  0  0
  1  2  1  0
  2  3  2  0
  3  4  1  0
  4  5  1  0
  5  6  1  0
  6  7  2  0
  7  8  1  0
  8  9  1  0
  4 10  2  0
 10 11  1  0
 11 12  2  0
 12 13  1  0
 13 14  1  0
 14 15  1  0
 12  2  1  0
  9  5  2  0
 15 11  1  0
M  END
>  <submitter_email>  (35) 
None

>  <original ID>  (35) 
RGWZNWCCBDMABV-UHFFFAOYSA-N

>  <ref_url>  (35) 
None

>  <ref_mols>  (35) 
cx0864a,c0864a,c1203a

>  <alias>  (35) 
None

>  <inchikey>  (35) 
RGWZNWCCBDMABV-UHFFFAOYSA-N

>  <HIPPO ID>  (35) 
6259

>  <ref_pdb>  (35) 
c0300a

>  <generation_date>  (35) 
None

>  <submitter_name>  (35) 
None

>  <method>  (35) 
None

>  <tags>  (35) 
['Syndirella base']

>  <original SMILES>  (35) 
Nc1cc(-c2cc[nH]n2)cc2c1OCO2

$$$$
MIMRXPBJLOWRMN-UHFFFAOYSA-N
     RDKit          3D

 15 16  0  0  0  0  0  0  0  0999 V2000
   13.6106    7.0932   11.3976 O   0  0  0  0  0  0  0  0  0  0  0  0
   14.4982    8.1015   11.1643 C   0  0  0  0  0  0  0  0  0  0  0  0
   14.8688    8.4239    9.8736 C   0  0  0  0  0  0  0  0  0  0  0  0
   15.8659    9.3718    9.6812 C   0  0  0  0  0  0  0  0  0  0  0  0
   16.4763   10.0243   10.7621 C   0  0  0  0  0  0  0  0  0  0  0  0
   17.6044   10.8070   10.4944 N   0  0  0  0  0  0  0  0  0  0  0  0
   18.2966   11.8349   11.1501 C   0  0  0  0  0  0  0  0  0  0  0  0
   17.6818   12.7481   11.9934 C   0  0  0  0  0  0  0  0  0  0  0  0
   18.4613   13.7711   12.5121 C   0  0  0  0  0  0  0  0  0  0  0  0
   19.7845   13.9253   12.2795 N   0  0  0  0  0  0  0  0  0  0  0  0
   20.3794   13.0001   11.5183 C   0  0  0  0  0  0  0  0  0  0  0  0
   19.6837   11.9588   10.9494 C   0  0  0  0  0  0  0  0  0  0  0  0
   20.3346   11.0341   10.1974 O   0  0  0  0  0  0  0  0  0  0  0  0
   15.9577    9.8141   12.0385 C   0  0  0  0  0  0  0  0  0  0  0  0
   15.0023    8.8155   12.2461 C   0  0  0  0  0  0  0  0  0  0  0  0
  1  2  1  0
  2  3  2  0
  3  4  1  0
  4  5  2  0
  5  6  1  0
  6  7  1  0
  7  8  2  0
  8  9  1  0
  9 10  2  0
 10 11  1  0
 11 12  2  0
 12 13  1  0
  5 14  1  0
 14 15  2  0
 15  2  1  0
 12  7  1  0
M  END
>  <submitter_email>  (36) 
None

>  <original ID>  (36) 
MIMRXPBJLOWRMN-UHFFFAOYSA-N

>  <ref_url>  (36) 
None

>  <ref_mols>  (36) 
cx0935a,c0935a,c1132a,c1132f

>  <alias>  (36) 
None

>  <inchikey>  (36) 
MIMRXPBJLOWRMN-UHFFFAOYSA-N

>  <HIPPO ID>  (36) 
6260

>  <ref_pdb>  (36) 
c0270a

>  <generation_date>  (36) 
None

>  <submitter_name>  (36) 
None

>  <method>  (36) 
None

>  <tags>  (36) 
['Syndirella base']

>  <original SMILES>  (36) 
Oc1ccc(Nc2ccncc2O)cc1

$$$$
FXMHNJCWYFUXEW-UHFFFAOYSA-N
     RDKit          3D

 19 21  0  0  0  0  0  0  0  0999 V2000
   13.5820    6.9047   11.5647 O   0  0  0  0  0  0  0  0  0  0  0  0
   14.4360    7.9253   11.2701 C   0  0  0  0  0  0  0  0  0  0  0  0
   14.6772    8.2798    9.9561 C   0  0  0  0  0  0  0  0  0  0  0  0
   15.5671    9.3127    9.6998 C   0  0  0  0  0  0  0  0  0  0  0  0
   16.2215    9.9951   10.7396 C   0  0  0  0  0  0  0  0  0  0  0  0
   17.1463   10.9773   10.3494 N   0  0  0  0  0  0  0  0  0  0  0  0
   18.1448   11.6683   11.0441 C   0  0  0  0  0  0  0  0  0  0  0  0
   19.4038   11.3873   10.6561 N   0  0  0  0  0  0  0  0  0  0  0  0
   20.4052   12.1604   11.1249 C   0  0  0  0  0  0  0  0  0  0  0  0
   20.2142   13.2583   11.9591 C   0  0  0  0  0  0  0  0  0  0  0  0
   21.2848   14.0570   12.3970 C   0  0  0  0  0  0  0  0  0  0  0  0
   21.0498   15.1636   13.2112 C   0  0  0  0  0  0  0  0  0  0  0  0
   19.7481   15.4871   13.5837 C   0  0  0  0  0  0  0  0  0  0  0  0
   18.6795   14.6929   13.1609 C   0  0  0  0  0  0  0  0  0  0  0  0
   18.8928   13.5567   12.3562 C   0  0  0  0  0  0  0  0  0  0  0  0
   17.8497   12.7240   11.9087 C   0  0  0  0  0  0  0  0  0  0  0  0
   16.5521   13.0295   12.2352 O   0  0  0  0  0  0  0  0  0  0  0  0
   15.8794    9.6982   12.0548 C   0  0  0  0  0  0  0  0  0  0  0  0
   15.0100    8.6371   12.3206 C   0  0  0  0  0  0  0  0  0  0  0  0
  1  2  1  0
  2  3  2  0
  3  4  1  0
  4  5  2  0
  5  6  1  0
  6  7  1  0
  7  8  2  0
  8  9  1  0
  9 10  2  0
 10 11  1  0
 11 12  2  0
 12 13  1  0
 13 14  2  0
 14 15  1  0
 15 16  2  0
 16 17  1  0
  5 18  1  0
 18 19  2  0
 19  2  1  0
 16  7  1  0
 15 10  1  0
M  END
>  <submitter_email>  (37) 
None

>  <original ID>  (37) 
FXMHNJCWYFUXEW-UHFFFAOYSA-N

>  <ref_url>  (37) 
None

>  <ref_mols>  (37) 
cx0935a,c0935a,c1440a,c1440b

>  <alias>  (37) 
None

>  <inchikey>  (37) 
FXMHNJCWYFUXEW-UHFFFAOYSA-N

>  <HIPPO ID>  (37) 
6261

>  <ref_pdb>  (37) 
c0270a

>  <generation_date>  (37) 
None

>  <submitter_name>  (37) 
None

>  <method>  (37) 
None

>  <tags>  (37) 
['Syndirella base']

>  <original SMILES>  (37) 
Oc1ccc(Nc2ncc3ccccc3c2O)cc1

$$$$
SBEBTLKTHHBVAY-LLVKDONJSA-N
     RDKit          3D

 28 30  0  0  0  0  0  0  0  0999 V2000
   21.6890   11.5724   10.4668 C   0  0  0  0  0  0  0  0  0  0  0  0
   20.2729   11.4231   10.4256 O   0  0  0  0  0  0  0  0  0  0  0  0
   19.6195   12.4599   11.1460 C   0  0  0  0  0  0  0  0  0  0  0  0
   18.1552   12.1088   11.4003 C   0  0  0  0  0  0  0  0  0  0  0  0
   17.5116   12.6817   12.2785 O   0  0  0  0  0  0  0  0  0  0  0  0
   17.6613   11.1335   10.5580 N   0  0  0  0  0  0  0  0  0  0  0  0
   16.5001   10.3754   10.7401 C   0  0  0  0  0  0  0  0  0  0  0  0
   16.0362    9.5941    9.6780 C   0  0  0  0  0  0  0  0  0  0  0  0
   15.0505    8.6425    9.8751 C   0  0  0  0  0  0  0  0  0  0  0  0
   14.6289    8.3937   11.1640 C   0  0  0  0  0  0  0  0  0  0  0  0
   13.8149    7.2992   11.3122 O   0  0  0  0  0  0  0  0  0  0  0  0
   15.0561    9.1973   12.2438 C   0  0  0  0  0  0  0  0  0  0  0  0
   14.8016    8.7749   13.6123 C   0  0  0  0  0  0  0  0  0  0  0  0
   14.6908    7.4965   13.8625 N   0  0  0  0  0  0  0  0  0  0  0  0
   14.7366    7.2596   15.2250 C   0  0  0  0  0  0  0  0  0  0  0  0
   14.8939    5.8701   15.6308 C   0  0  0  0  0  0  0  0  0  0  0  0
   14.5810    5.4273   16.7233 O   0  0  0  0  0  0  0  0  0  0  0  0
   15.4016    5.1614   14.5729 N   0  0  0  0  0  0  0  0  0  0  0  0
   15.5078    3.7238   14.4359 C   0  0  2  0  0  0  0  0  0  0  0  0
   16.8892    3.2213   14.8346 C   0  0  0  0  0  0  0  0  0  0  0  0
   17.9947    3.7846   13.9441 C   0  0  0  0  0  0  0  0  0  0  0  0
   17.6376    4.0314   12.4886 C   0  0  0  0  0  0  0  0  0  0  0  0
   18.4775    4.4138   11.6703 O   0  0  0  0  0  0  0  0  0  0  0  0
   16.3291    3.9469   12.1205 N   0  0  0  0  0  0  0  0  0  0  0  0
   15.2956    3.3755   12.9616 C   0  0  0  0  0  0  0  0  0  0  0  0
   14.6628    8.3913   16.0072 C   0  0  0  0  0  0  0  0  0  0  0  0
   14.7316    9.7851   14.9908 S   0  0  0  0  0  0  0  0  0  0  0  0
   15.9335   10.2454   11.9996 C   0  0  0  0  0  0  0  0  0  0  0  0
  1  2  1  0
  2  3  1  0
  3  4  1  0
  4  5  2  0
  4  6  1  0
  6  7  1  0
  7  8  2  0
  8  9  1  0
  9 10  2  0
 10 11  1  0
 10 12  1  0
 12 13  1  0
 13 14  2  0
 14 15  1  0
 15 16  1  0
 16 17  2  0
 16 18  1  0
 19 18  1  6
 19 20  1  0
 20 21  1  0
 21 22  1  0
 22 23  2  0
 22 24  1  0
 24 25  1  0
 15 26  2  0
 26 27  1  0
 12 28  2  0
 28  7  1  0
 27 13  1  0
 25 19  1  0
M  END
>  <submitter_email>  (38) 
None

>  <original ID>  (38) 
SBEBTLKTHHBVAY-LLVKDONJSA-N

>  <ref_url>  (38) 
None

>  <ref_mols>  (38) 
cx0935a,c0300a,c0935a

>  <alias>  (38) 
None

>  <inchikey>  (38) 
SBEBTLKTHHBVAY-LLVKDONJSA-N

>  <HIPPO ID>  (38) 
6262

>  <ref_pdb>  (38) 
c0270a

>  <generation_date>  (38) 
None

>  <submitter_name>  (38) 
None

>  <method>  (38) 
None

>  <tags>  (38) 
['Syndirella base']

>  <original SMILES>  (38) 
COCC(=O)Nc1ccc(O)c(-c2nc(C(=O)N[C@@H]3CCC(=O)NC3)cs2)c1

$$$$
SBEBTLKTHHBVAY-NSHDSACASA-N
     RDKit          3D

 28 30  0  0  0  0  0  0  0  0999 V2000
   21.6428   11.5645   10.4905 C   0  0  0  0  0  0  0  0  0  0  0  0
   20.2278   11.4211   10.4241 O   0  0  0  0  0  0  0  0  0  0  0  0
   19.5626   12.4468   11.1504 C   0  0  0  0  0  0  0  0  0  0  0  0
   18.1073   12.0672   11.4197 C   0  0  0  0  0  0  0  0  0  0  0  0
   17.4702   12.6098   12.3215 O   0  0  0  0  0  0  0  0  0  0  0  0
   17.6147   11.0994   10.5676 N   0  0  0  0  0  0  0  0  0  0  0  0
   16.4726   10.3129   10.7563 C   0  0  0  0  0  0  0  0  0  0  0  0
   16.0075    9.5445    9.6880 C   0  0  0  0  0  0  0  0  0  0  0  0
   15.0312    8.5815    9.8838 C   0  0  0  0  0  0  0  0  0  0  0  0
   14.6066    8.3184   11.1710 C   0  0  0  0  0  0  0  0  0  0  0  0
   13.7728    7.2373   11.3026 O   0  0  0  0  0  0  0  0  0  0  0  0
   15.0322    9.1052   12.2619 C   0  0  0  0  0  0  0  0  0  0  0  0
   14.7136    8.7056   13.6324 C   0  0  0  0  0  0  0  0  0  0  0  0
   14.3345    7.4742   13.8979 N   0  0  0  0  0  0  0  0  0  0  0  0
   14.5271    7.2120   15.2453 C   0  0  0  0  0  0  0  0  0  0  0  0
   14.5803    5.8217   15.6923 C   0  0  0  0  0  0  0  0  0  0  0  0
   14.7476    5.4928   16.8568 O   0  0  0  0  0  0  0  0  0  0  0  0
   14.4134    4.9130   14.6502 N   0  0  0  0  0  0  0  0  0  0  0  0
   15.6109    4.5852   13.8925 C   0  0  1  0  0  0  0  0  0  0  0  0
   16.6668    3.7776   14.6423 C   0  0  0  0  0  0  0  0  0  0  0  0
   17.9064    3.5776   13.7608 C   0  0  0  0  0  0  0  0  0  0  0  0
   17.7273    3.8970   12.2803 C   0  0  0  0  0  0  0  0  0  0  0  0
   18.6604    4.2583   11.5644 O   0  0  0  0  0  0  0  0  0  0  0  0
   16.4686    3.8334   11.7600 N   0  0  0  0  0  0  0  0  0  0  0  0
   15.3020    3.8125   12.6047 C   0  0  0  0  0  0  0  0  0  0  0  0
   14.7295    8.3317   16.0257 C   0  0  0  0  0  0  0  0  0  0  0  0
   14.8779    9.7114   15.0149 S   0  0  0  0  0  0  0  0  0  0  0  0
   15.9171   10.1524   12.0195 C   0  0  0  0  0  0  0  0  0  0  0  0
  1  2  1  0
  2  3  1  0
  3  4  1  0
  4  5  2  0
  4  6  1  0
  6  7  1  0
  7  8  2  0
  8  9  1  0
  9 10  2  0
 10 11  1  0
 10 12  1  0
 12 13  1  0
 13 14  2  0
 14 15  1  0
 15 16  1  0
 16 17  2  0
 16 18  1  0
 19 18  1  1
 19 20  1  0
 20 21  1  0
 21 22  1  0
 22 23  2  0
 22 24  1  0
 24 25  1  0
 15 26  2  0
 26 27  1  0
 12 28  2  0
 28  7  1  0
 27 13  1  0
 25 19  1  0
M  END
>  <submitter_email>  (39) 
None

>  <original ID>  (39) 
SBEBTLKTHHBVAY-NSHDSACASA-N

>  <ref_url>  (39) 
None

>  <ref_mols>  (39) 
cx0935a,c0300a,c0935a

>  <alias>  (39) 
None

>  <inchikey>  (39) 
SBEBTLKTHHBVAY-NSHDSACASA-N

>  <HIPPO ID>  (39) 
6263

>  <ref_pdb>  (39) 
c0270a

>  <generation_date>  (39) 
None

>  <submitter_name>  (39) 
None

>  <method>  (39) 
None

>  <tags>  (39) 
['Syndirella base']

>  <original SMILES>  (39) 
COCC(=O)Nc1ccc(O)c(-c2nc(C(=O)N[C@H]3CCC(=O)NC3)cs2)c1

$$$$
XXPRWRCNORVHSY-UHFFFAOYSA-N
     RDKit          3D

 21 21  0  0  0  0  0  0  0  0999 V2000
   11.0323   13.7931   10.1077 C   0  0  0  0  0  0  0  0  0  0  0  0
   11.7639   12.7967   10.8057 O   0  0  0  0  0  0  0  0  0  0  0  0
   13.0332   13.1152   11.3460 C   0  0  0  0  0  0  0  0  0  0  0  0
   14.0412   12.0844   10.9180 C   0  0  0  0  0  0  0  0  0  0  0  0
   14.4089   12.0091    9.7548 O   0  0  0  0  0  0  0  0  0  0  0  0
   14.4555   11.2317   11.9052 N   0  0  0  0  0  0  0  0  0  0  0  0
   14.9736    9.9357   11.6893 C   0  0  0  0  0  0  0  0  0  0  0  0
   14.9084    9.3566   10.4114 C   0  0  0  0  0  0  0  0  0  0  0  0
   15.0349    7.9946   10.2435 C   0  0  0  0  0  0  0  0  0  0  0  0
   15.3429    7.2089   11.3307 C   0  0  0  0  0  0  0  0  0  0  0  0
   15.4708    5.8611   11.1552 O   0  0  0  0  0  0  0  0  0  0  0  0
   15.5359    7.7778   12.5913 C   0  0  0  0  0  0  0  0  0  0  0  0
   15.9723    6.9213   13.6470 C   0  0  0  0  0  0  0  0  0  0  0  0
   16.3280    6.2749   14.5448 N   0  0  0  0  0  0  0  0  0  0  0  0
   15.3333    9.1630   12.8176 C   0  0  0  0  0  0  0  0  0  0  0  0
   15.4997    9.7096   14.1002 N   0  0  0  0  0  0  0  0  0  0  0  0
   16.0465   11.0537   14.2874 C   0  0  0  0  0  0  0  0  0  0  0  0
   14.5734    9.2479   15.1515 C   0  0  0  0  0  0  0  0  0  0  0  0
   15.2520    9.2827   16.5219 C   0  0  0  0  0  0  0  0  0  0  0  0
   15.9462    8.1668   16.8820 N   0  0  0  0  0  0  0  0  0  0  0  0
   15.2013   10.2690   17.2526 O   0  0  0  0  0  0  0  0  0  0  0  0
  1  2  1  0
  2  3  1  0
  3  4  1  0
  4  5  2  0
  4  6  1  0
  6  7  1  0
  7  8  2  0
  8  9  1  0
  9 10  2  0
 10 11  1  0
 10 12  1  0
 12 13  1  0
 13 14  3  0
 12 15  2  0
 15 16  1  0
 16 17  1  0
 16 18  1  0
 18 19  1  0
 19 20  1  0
 19 21  2  0
 15  7  1  0
M  END
>  <submitter_email>  (40) 
None

>  <original ID>  (40) 
XXPRWRCNORVHSY-UHFFFAOYSA-N

>  <ref_url>  (40) 
None

>  <ref_mols>  (40) 
cx0935a,c0553a,c0935a

>  <alias>  (40) 
None

>  <inchikey>  (40) 
XXPRWRCNORVHSY-UHFFFAOYSA-N

>  <HIPPO ID>  (40) 
6264

>  <ref_pdb>  (40) 
c0270a

>  <generation_date>  (40) 
None

>  <submitter_name>  (40) 
None

>  <method>  (40) 
None

>  <tags>  (40) 
['Syndirella base']

>  <original SMILES>  (40) 
COCC(=O)Nc1ccc(O)c(C#N)c1N(C)CC(N)=O

$$$$
OULBTDXTVHQBAE-SECBINFHSA-N
     RDKit          3D

 22 24  0  0  0  0  0  0  0  0999 V2000
   14.9157    9.2099   10.3212 C   0  0  0  0  0  0  0  0  0  0  0  0
   14.7740   10.4711   11.1003 C   0  0  0  0  0  0  0  0  0  0  0  0
   14.5666   11.6004   10.4092 N   0  0  0  0  0  0  0  0  0  0  0  0
   14.3356   12.5340   11.3411 N   0  0  0  0  0  0  0  0  0  0  0  0
   14.5401   12.0825   12.6198 C   0  0  0  0  0  0  0  0  0  0  0  0
   14.4702   13.0248   13.7624 C   0  0  0  0  0  0  0  0  0  0  0  0
   14.7683   10.7166   12.5073 C   0  0  0  0  0  0  0  0  0  0  0  0
   14.9309    9.6901   13.7134 C   0  0  0  0  0  0  0  0  0  0  0  0
   14.9818    8.3763   13.5640 N   0  0  0  0  0  0  0  0  0  0  0  0
   14.9430    7.7494   14.8253 C   0  0  0  0  0  0  0  0  0  0  0  0
   14.8681    6.2968   15.0117 C   0  0  0  0  0  0  0  0  0  0  0  0
   14.5496    5.7830   16.0798 O   0  0  0  0  0  0  0  0  0  0  0  0
   15.1759    5.5775   13.8890 N   0  0  0  0  0  0  0  0  0  0  0  0
   15.2232    4.1189   13.8686 C   0  0  2  0  0  0  0  0  0  0  0  0
   16.4937    3.5770   14.5275 C   0  0  0  0  0  0  0  0  0  0  0  0
   17.7492    4.0282   13.7906 C   0  0  0  0  0  0  0  0  0  0  0  0
   17.6241    4.1195   12.2832 C   0  0  0  0  0  0  0  0  0  0  0  0
   18.5923    4.3938   11.5733 O   0  0  0  0  0  0  0  0  0  0  0  0
   16.3881    4.0466   11.7131 N   0  0  0  0  0  0  0  0  0  0  0  0
   15.2066    3.6135   12.4280 C   0  0  0  0  0  0  0  0  0  0  0  0
   14.9612    8.6171   15.8978 C   0  0  0  0  0  0  0  0  0  0  0  0
   15.0072   10.2206   15.3504 S   0  0  0  0  0  0  0  0  0  0  0  0
  1  2  1  0
  2  3  2  0
  3  4  1  0
  4  5  1  0
  5  6  1  0
  5  7  2  0
  7  8  1  0
  8  9  2  0
  9 10  1  0
 10 11  1  0
 11 12  2  0
 11 13  1  0
 14 13  1  6
 14 15  1  0
 15 16  1  0
 16 17  1  0
 17 18  2  0
 17 19  1  0
 19 20  1  0
 10 21  2  0
 21 22  1  0
  7  2  1  0
 22  8  1  0
 20 14  1  0
M  END
>  <submitter_email>  (41) 
None

>  <original ID>  (41) 
OULBTDXTVHQBAE-SECBINFHSA-N

>  <ref_url>  (41) 
None

>  <ref_mols>  (41) 
c0300a,c1417a

>  <alias>  (41) 
None

>  <inchikey>  (41) 
OULBTDXTVHQBAE-SECBINFHSA-N

>  <HIPPO ID>  (41) 
6265

>  <ref_pdb>  (41) 
c0300a

>  <generation_date>  (41) 
None

>  <submitter_name>  (41) 
None

>  <method>  (41) 
None

>  <tags>  (41) 
['Syndirella base']

>  <original SMILES>  (41) 
Cc1n[nH]c(C)c1-c1nc(C(=O)N[C@@H]2CCC(=O)NC2)cs1

$$$$
OULBTDXTVHQBAE-VIFPVBQESA-N
     RDKit          3D

 22 24  0  0  0  0  0  0  0  0999 V2000
   14.6211   12.8879   14.3115 C   0  0  0  0  0  0  0  0  0  0  0  0
   14.6549   12.0366   13.0963 C   0  0  0  0  0  0  0  0  0  0  0  0
   14.5885   12.6442   11.9104 N   0  0  0  0  0  0  0  0  0  0  0  0
   14.5324   11.6492   11.0340 N   0  0  0  0  0  0  0  0  0  0  0  0
   14.7676   10.4134   11.5645 C   0  0  0  0  0  0  0  0  0  0  0  0
   14.8562    9.2346   10.6546 C   0  0  0  0  0  0  0  0  0  0  0  0
   14.7905   10.6240   12.9373 C   0  0  0  0  0  0  0  0  0  0  0  0
   14.9047    9.5483   14.0832 C   0  0  0  0  0  0  0  0  0  0  0  0
   14.7873    8.2470   13.8887 N   0  0  0  0  0  0  0  0  0  0  0  0
   14.8276    7.5843   15.1285 C   0  0  0  0  0  0  0  0  0  0  0  0
   14.7040    6.1328   15.2591 C   0  0  0  0  0  0  0  0  0  0  0  0
   14.7598    5.5516   16.3364 O   0  0  0  0  0  0  0  0  0  0  0  0
   14.5084    5.4774   14.0610 N   0  0  0  0  0  0  0  0  0  0  0  0
   15.6697    4.8451   13.4775 C   0  0  1  0  0  0  0  0  0  0  0  0
   16.6223    4.0871   14.4129 C   0  0  0  0  0  0  0  0  0  0  0  0
   17.7379    3.3988   13.6157 C   0  0  0  0  0  0  0  0  0  0  0  0
   17.7297    3.7835   12.1451 C   0  0  0  0  0  0  0  0  0  0  0  0
   18.7049    4.2197   11.5413 O   0  0  0  0  0  0  0  0  0  0  0  0
   16.5071    3.7165   11.5232 N   0  0  0  0  0  0  0  0  0  0  0  0
   15.3153    3.9074   12.3159 C   0  0  0  0  0  0  0  0  0  0  0  0
   15.0312    8.4009   16.2204 C   0  0  0  0  0  0  0  0  0  0  0  0
   15.1571   10.0133   15.7212 S   0  0  0  0  0  0  0  0  0  0  0  0
  1  2  1  0
  2  3  2  0
  3  4  1  0
  4  5  1  0
  5  6  1  0
  5  7  2  0
  7  8  1  0
  8  9  2  0
  9 10  1  0
 10 11  1  0
 11 12  2  0
 11 13  1  0
 14 13  1  1
 14 15  1  0
 15 16  1  0
 16 17  1  0
 17 18  2  0
 17 19  1  0
 19 20  1  0
 10 21  2  0
 21 22  1  0
  7  2  1  0
 22  8  1  0
 20 14  1  0
M  END
>  <submitter_email>  (42) 
None

>  <original ID>  (42) 
OULBTDXTVHQBAE-VIFPVBQESA-N

>  <ref_url>  (42) 
None

>  <ref_mols>  (42) 
c0300a,c1417a

>  <alias>  (42) 
None

>  <inchikey>  (42) 
OULBTDXTVHQBAE-VIFPVBQESA-N

>  <HIPPO ID>  (42) 
6266

>  <ref_pdb>  (42) 
c0300a

>  <generation_date>  (42) 
None

>  <submitter_name>  (42) 
None

>  <method>  (42) 
None

>  <tags>  (42) 
['Syndirella base']

>  <original SMILES>  (42) 
Cc1n[nH]c(C)c1-c1nc(C(=O)N[C@H]2CCC(=O)NC2)cs1

$$$$
JAHJLJNEYRGXQB-QLFBSQMISA-N
     RDKit          3D

 24 25  0  0  0  0  0  0  0  0999 V2000
   13.4229   13.2031   11.6656 C   0  0  0  0  0  0  0  0  0  0  0  0
   14.5930   13.5808   12.5329 C   0  0  0  0  0  0  0  0  0  0  0  0
   14.9866   12.4271   13.4491 C   0  0  2  0  0  0  0  0  0  0  0  0
   15.3583   11.3278   12.5595 N   0  0  0  0  0  0  0  0  0  0  0  0
   14.0095   12.1777   14.4924 N   0  0  0  0  0  0  0  0  0  0  0  0
   14.5050   11.1702   15.3564 C   0  0  0  0  0  0  0  0  0  0  0  0
   15.3427   11.4279   16.4304 C   0  0  0  0  0  0  0  0  0  0  0  0
   15.9965   10.3616   17.0476 C   0  0  0  0  0  0  0  0  0  0  0  0
   15.9115    9.0679   16.5129 C   0  0  0  0  0  0  0  0  0  0  0  0
   15.0984    8.8071   15.4119 C   0  0  0  0  0  0  0  0  0  0  0  0
   15.3319    7.5913   14.5244 C   0  0  2  0  0  0  0  0  0  0  0  0
   14.5681    7.6607   13.1872 C   0  0  0  0  0  0  0  0  0  0  0  0
   15.2999    6.7651   11.8162 S   0  0  0  0  0  0  0  0  0  0  0  0
   15.0826    6.2168   15.1379 C   0  0  0  0  0  0  0  0  0  0  0  0
   14.1618    5.9470   15.8987 O   0  0  0  0  0  0  0  0  0  0  0  0
   15.9796    5.2892   14.6433 N   0  0  0  0  0  0  0  0  0  0  0  0
   15.7930    3.8365   14.6700 C   0  0  2  0  0  0  0  0  0  0  0  0
   17.1185    3.1454   14.9770 C   0  0  0  0  0  0  0  0  0  0  0  0
   18.1918    3.4558   13.9319 C   0  0  0  0  0  0  0  0  0  0  0  0
   17.7009    3.7977   12.5345 C   0  0  0  0  0  0  0  0  0  0  0  0
   18.4530    4.2710   11.6794 O   0  0  0  0  0  0  0  0  0  0  0  0
   16.3685    3.6667   12.2784 N   0  0  0  0  0  0  0  0  0  0  0  0
   15.3649    3.3422   13.2806 C   0  0  0  0  0  0  0  0  0  0  0  0
   14.2992    9.8517   14.9586 C   0  0  0  0  0  0  0  0  0  0  0  0
  1  2  1  0
  2  3  1  0
  3  4  1  6
  3  5  1  0
  5  6  1  0
  6  7  2  0
  7  8  1  0
  8  9  2  0
  9 10  1  0
 10 11  1  0
 11 12  1  6
 12 13  1  0
 11 14  1  0
 14 15  2  0
 14 16  1  0
 17 16  1  6
 17 18  1  0
 18 19  1  0
 19 20  1  0
 20 21  2  0
 20 22  1  0
 22 23  1  0
 10 24  2  0
 24  6  1  0
 23 17  1  0
M  END
>  <submitter_email>  (43) 
None

>  <original ID>  (43) 
JAHJLJNEYRGXQB-QLFBSQMISA-N

>  <ref_url>  (43) 
None

>  <ref_mols>  (43) 
cx1338a,c0300a,c1338a

>  <alias>  (43) 
None

>  <inchikey>  (43) 
JAHJLJNEYRGXQB-QLFBSQMISA-N

>  <HIPPO ID>  (43) 
6267

>  <ref_pdb>  (43) 
c0300a

>  <generation_date>  (43) 
None

>  <submitter_name>  (43) 
None

>  <method>  (43) 
None

>  <tags>  (43) 
['Syndirella base']

>  <original SMILES>  (43) 
CC[C@H](N)Nc1cccc([C@H](CS)C(=O)N[C@@H]2CCC(=O)NC2)c1

$$$$
JAHJLJNEYRGXQB-ILXRZTDVSA-N
     RDKit          3D

 24 25  0  0  0  0  0  0  0  0999 V2000
   15.2115   15.0286   13.0268 C   0  0  0  0  0  0  0  0  0  0  0  0
   14.8732   13.7201   13.6946 C   0  0  0  0  0  0  0  0  0  0  0  0
   14.2218   12.6162   12.8547 C   0  0  1  0  0  0  0  0  0  0  0  0
   14.5046   12.6993   11.4320 N   0  0  0  0  0  0  0  0  0  0  0  0
   14.5496   11.2908   13.3166 N   0  0  0  0  0  0  0  0  0  0  0  0
   14.5444   10.7240   14.5683 C   0  0  0  0  0  0  0  0  0  0  0  0
   14.7684   11.3995   15.7682 C   0  0  0  0  0  0  0  0  0  0  0  0
   14.9454   10.7164   16.9765 C   0  0  0  0  0  0  0  0  0  0  0  0
   14.9248    9.3313   17.0005 C   0  0  0  0  0  0  0  0  0  0  0  0
   14.8046    8.6191   15.8035 C   0  0  0  0  0  0  0  0  0  0  0  0
   15.5319    7.2796   15.7136 C   0  0  2  0  0  0  0  0  0  0  0  0
   16.7835    7.5127   14.8418 C   0  0  0  0  0  0  0  0  0  0  0  0
   17.8862    8.7902   15.5303 S   0  0  0  0  0  0  0  0  0  0  0  0
   14.7916    6.0685   15.1703 C   0  0  0  0  0  0  0  0  0  0  0  0
   13.5905    6.0166   14.9530 O   0  0  0  0  0  0  0  0  0  0  0  0
   15.6425    4.9945   14.9907 N   0  0  0  0  0  0  0  0  0  0  0  0
   15.3316    3.7524   14.2901 C   0  0  2  0  0  0  0  0  0  0  0  0
   16.5356    2.8120   14.3943 C   0  0  0  0  0  0  0  0  0  0  0  0
   17.7753    3.3926   13.7089 C   0  0  0  0  0  0  0  0  0  0  0  0
   17.5185    4.1058   12.3947 C   0  0  0  0  0  0  0  0  0  0  0  0
   18.4352    4.4567   11.6495 O   0  0  0  0  0  0  0  0  0  0  0  0
   16.2412    4.4863   12.1036 N   0  0  0  0  0  0  0  0  0  0  0  0
   15.0735    3.9715   12.7931 C   0  0  0  0  0  0  0  0  0  0  0  0
   14.5134    9.3213   14.6222 C   0  0  0  0  0  0  0  0  0  0  0  0
  1  2  1  0
  2  3  1  0
  3  4  1  6
  3  5  1  0
  5  6  1  0
  6  7  2  0
  7  8  1  0
  8  9  2  0
  9 10  1  0
 10 11  1  0
 11 12  1  6
 12 13  1  0
 11 14  1  0
 14 15  2  0
 14 16  1  0
 17 16  1  1
 17 18  1  0
 18 19  1  0
 19 20  1  0
 20 21  2  0
 20 22  1  0
 22 23  1  0
 10 24  2  0
 24  6  1  0
 23 17  1  0
M  END
>  <submitter_email>  (44) 
None

>  <original ID>  (44) 
JAHJLJNEYRGXQB-ILXRZTDVSA-N

>  <ref_url>  (44) 
None

>  <ref_mols>  (44) 
cx1338a,c0300a,c1338a

>  <alias>  (44) 
None

>  <inchikey>  (44) 
JAHJLJNEYRGXQB-ILXRZTDVSA-N

>  <HIPPO ID>  (44) 
6268

>  <ref_pdb>  (44) 
c0300a

>  <generation_date>  (44) 
None

>  <submitter_name>  (44) 
None

>  <method>  (44) 
None

>  <tags>  (44) 
['Syndirella base']

>  <original SMILES>  (44) 
CC[C@@H](N)Nc1cccc([C@H](CS)C(=O)N[C@@H]2CCC(=O)NC2)c1

$$$$
JAHJLJNEYRGXQB-RBSFLKMASA-N
     RDKit          3D

 24 25  0  0  0  0  0  0  0  0999 V2000
   13.4790   13.0373   11.1733 C   0  0  0  0  0  0  0  0  0  0  0  0
   14.4308   13.3635   12.3105 C   0  0  0  0  0  0  0  0  0  0  0  0
   14.8179   12.1487   13.1461 C   0  0  2  0  0  0  0  0  0  0  0  0
   14.9943   11.0055   12.2660 N   0  0  0  0  0  0  0  0  0  0  0  0
   13.9505   12.0040   14.2837 N   0  0  0  0  0  0  0  0  0  0  0  0
   14.4419   11.0114   15.1552 C   0  0  0  0  0  0  0  0  0  0  0  0
   15.3570   11.2940   16.1563 C   0  0  0  0  0  0  0  0  0  0  0  0
   15.9317   10.2458   16.8808 C   0  0  0  0  0  0  0  0  0  0  0  0
   15.6663    8.9083   16.5500 C   0  0  0  0  0  0  0  0  0  0  0  0
   14.7780    8.6123   15.5264 C   0  0  0  0  0  0  0  0  0  0  0  0
   14.6873    7.3064   14.7597 C   0  0  1  0  0  0  0  0  0  0  0  0
   15.6387    7.4976   13.5600 C   0  0  0  0  0  0  0  0  0  0  0  0
   14.7463    7.4345   11.9861 S   0  0  0  0  0  0  0  0  0  0  0  0
   14.9861    5.9830   15.4354 C   0  0  0  0  0  0  0  0  0  0  0  0
   15.0376    5.8070   16.6440 O   0  0  0  0  0  0  0  0  0  0  0  0
   15.1264    4.9631   14.5128 N   0  0  0  0  0  0  0  0  0  0  0  0
   15.6822    3.6457   14.7904 C   0  0  2  0  0  0  0  0  0  0  0  0
   17.1332    3.7180   15.2563 C   0  0  0  0  0  0  0  0  0  0  0  0
   18.0766    4.2772   14.1917 C   0  0  0  0  0  0  0  0  0  0  0  0
   17.6929    4.0755   12.7335 C   0  0  0  0  0  0  0  0  0  0  0  0
   18.4021    4.4849   11.8113 O   0  0  0  0  0  0  0  0  0  0  0  0
   16.4773    3.5153   12.4730 N   0  0  0  0  0  0  0  0  0  0  0  0
   15.7027    2.8331   13.4956 C   0  0  0  0  0  0  0  0  0  0  0  0
   14.1332    9.6817   14.9015 C   0  0  0  0  0  0  0  0  0  0  0  0
  1  2  1  0
  2  3  1  0
  3  4  1  6
  3  5  1  0
  5  6  1  0
  6  7  2  0
  7  8  1  0
  8  9  2  0
  9 10  1  0
 10 11  1  0
 11 12  1  6
 12 13  1  0
 11 14  1  0
 14 15  2  0
 14 16  1  0
 17 16  1  6
 17 18  1  0
 18 19  1  0
 19 20  1  0
 20 21  2  0
 20 22  1  0
 22 23  1  0
 10 24  2  0
 24  6  1  0
 23 17  1  0
M  END
>  <submitter_email>  (45) 
None

>  <original ID>  (45) 
JAHJLJNEYRGXQB-RBSFLKMASA-N

>  <ref_url>  (45) 
None

>  <ref_mols>  (45) 
cx1338a,c0300a,c1338a

>  <alias>  (45) 
None

>  <inchikey>  (45) 
JAHJLJNEYRGXQB-RBSFLKMASA-N

>  <HIPPO ID>  (45) 
6269

>  <ref_pdb>  (45) 
c0300a

>  <generation_date>  (45) 
None

>  <submitter_name>  (45) 
None

>  <method>  (45) 
None

>  <tags>  (45) 
['Syndirella base']

>  <original SMILES>  (45) 
CC[C@H](N)Nc1cccc([C@@H](CS)C(=O)N[C@@H]2CCC(=O)NC2)c1

$$$$
JAHJLJNEYRGXQB-KFWWJZLASA-N
     RDKit          3D

 24 25  0  0  0  0  0  0  0  0999 V2000
   15.1663   15.0699   13.0201 C   0  0  0  0  0  0  0  0  0  0  0  0
   14.7266   13.8588   13.7986 C   0  0  0  0  0  0  0  0  0  0  0  0
   14.3294   12.5977   13.0095 C   0  0  1  0  0  0  0  0  0  0  0  0
   14.1558   12.7497   11.5777 N   0  0  0  0  0  0  0  0  0  0  0  0
   15.3118   11.5734   13.2563 N   0  0  0  0  0  0  0  0  0  0  0  0
   15.1292   10.7413   14.3571 C   0  0  0  0  0  0  0  0  0  0  0  0
   15.3459   11.1174   15.6736 C   0  0  0  0  0  0  0  0  0  0  0  0
   15.1869   10.1832   16.6977 C   0  0  0  0  0  0  0  0  0  0  0  0
   14.7962    8.8729   16.4067 C   0  0  0  0  0  0  0  0  0  0  0  0
   14.5532    8.4762   15.0912 C   0  0  0  0  0  0  0  0  0  0  0  0
   14.0299    7.1011   14.7484 C   0  0  1  0  0  0  0  0  0  0  0  0
   13.7309    6.7481   13.2737 C   0  0  0  0  0  0  0  0  0  0  0  0
   15.0789    6.9357   12.0647 S   0  0  0  0  0  0  0  0  0  0  0  0
   14.7115    5.9211   15.4243 C   0  0  0  0  0  0  0  0  0  0  0  0
   14.3043    5.4966   16.5043 O   0  0  0  0  0  0  0  0  0  0  0  0
   15.7097    5.3068   14.7088 N   0  0  0  0  0  0  0  0  0  0  0  0
   15.8740    3.8519   14.7574 C   0  0  2  0  0  0  0  0  0  0  0  0
   17.3044    3.4633   15.0789 C   0  0  0  0  0  0  0  0  0  0  0  0
   18.2831    3.8629   13.9835 C   0  0  0  0  0  0  0  0  0  0  0  0
   17.7437    3.9842   12.5711 C   0  0  0  0  0  0  0  0  0  0  0  0
   18.4516    4.3820   11.6437 O   0  0  0  0  0  0  0  0  0  0  0  0
   16.4226    3.7283   12.3622 N   0  0  0  0  0  0  0  0  0  0  0  0
   15.5284    3.2412   13.3929 C   0  0  0  0  0  0  0  0  0  0  0  0
   14.7075    9.4440   14.1023 C   0  0  0  0  0  0  0  0  0  0  0  0
  1  2  1  0
  2  3  1  0
  3  4  1  6
  3  5  1  0
  5  6  1  0
  6  7  2  0
  7  8  1  0
  8  9  2  0
  9 10  1  0
 10 11  1  0
 11 12  1  6
 12 13  1  0
 11 14  1  0
 14 15  2  0
 14 16  1  0
 17 16  1  6
 17 18  1  0
 18 19  1  0
 19 20  1  0
 20 21  2  0
 20 22  1  0
 22 23  1  0
 10 24  2  0
 24  6  1  0
 23 17  1  0
M  END
>  <submitter_email>  (46) 
None

>  <original ID>  (46) 
JAHJLJNEYRGXQB-KFWWJZLASA-N

>  <ref_url>  (46) 
None

>  <ref_mols>  (46) 
cx1338a,c0300a,c1338a

>  <alias>  (46) 
None

>  <inchikey>  (46) 
JAHJLJNEYRGXQB-KFWWJZLASA-N

>  <HIPPO ID>  (46) 
6270

>  <ref_pdb>  (46) 
c0300a

>  <generation_date>  (46) 
None

>  <submitter_name>  (46) 
None

>  <method>  (46) 
None

>  <tags>  (46) 
['Syndirella base']

>  <original SMILES>  (46) 
CC[C@@H](N)Nc1cccc([C@@H](CS)C(=O)N[C@@H]2CCC(=O)NC2)c1

$$$$
JAHJLJNEYRGXQB-KKUMJFAQSA-N
     RDKit          3D

 24 25  0  0  0  0  0  0  0  0999 V2000
   14.9433   14.9401   13.7183 C   0  0  0  0  0  0  0  0  0  0  0  0
   14.7285   13.8966   12.6314 C   0  0  0  0  0  0  0  0  0  0  0  0
   14.5478   12.4510   13.1176 C   0  0  1  0  0  0  0  0  0  0  0  0
   14.7415   11.6161   11.9336 N   0  0  0  0  0  0  0  0  0  0  0  0
   15.4131   12.2523   14.2606 N   0  0  0  0  0  0  0  0  0  0  0  0
   15.2476   11.1606   15.0972 C   0  0  0  0  0  0  0  0  0  0  0  0
   15.2709   11.3672   16.4713 C   0  0  0  0  0  0  0  0  0  0  0  0
   15.2385   10.2869   17.3493 C   0  0  0  0  0  0  0  0  0  0  0  0
   15.2035    8.9801   16.8584 C   0  0  0  0  0  0  0  0  0  0  0  0
   15.2144    8.7344   15.4887 C   0  0  0  0  0  0  0  0  0  0  0  0
   15.1956    7.3497   14.8457 C   0  0  2  0  0  0  0  0  0  0  0  0
   14.1398    7.2810   13.7278 C   0  0  0  0  0  0  0  0  0  0  0  0
   12.4688    7.5902   14.4035 S   0  0  0  0  0  0  0  0  0  0  0  0
   14.9356    6.1070   15.7114 C   0  0  0  0  0  0  0  0  0  0  0  0
   14.3554    6.1227   16.7962 O   0  0  0  0  0  0  0  0  0  0  0  0
   15.1952    4.8679   15.1857 N   0  0  0  0  0  0  0  0  0  0  0  0
   16.1002    4.5446   14.1145 C   0  0  1  0  0  0  0  0  0  0  0  0
   17.3795    3.9058   14.6667 C   0  0  0  0  0  0  0  0  0  0  0  0
   18.0930    3.1049   13.5892 C   0  0  0  0  0  0  0  0  0  0  0  0
   17.7896    3.6781   12.2205 C   0  0  0  0  0  0  0  0  0  0  0  0
   18.6140    4.2301   11.5004 O   0  0  0  0  0  0  0  0  0  0  0  0
   16.4472    3.6612   11.9024 N   0  0  0  0  0  0  0  0  0  0  0  0
   15.4977    3.6675   13.0012 C   0  0  0  0  0  0  0  0  0  0  0  0
   15.2841    9.8510   14.6317 C   0  0  0  0  0  0  0  0  0  0  0  0
  1  2  1  0
  2  3  1  0
  3  4  1  6
  3  5  1  0
  5  6  1  0
  6  7  2  0
  7  8  1  0
  8  9  2  0
  9 10  1  0
 10 11  1  0
 11 12  1  6
 12 13  1  0
 11 14  1  0
 14 15  2  0
 14 16  1  0
 17 16  1  1
 17 18  1  0
 18 19  1  0
 19 20  1  0
 20 21  2  0
 20 22  1  0
 22 23  1  0
 10 24  2  0
 24  6  1  0
 23 17  1  0
M  END
>  <submitter_email>  (47) 
None

>  <original ID>  (47) 
JAHJLJNEYRGXQB-KKUMJFAQSA-N

>  <ref_url>  (47) 
None

>  <ref_mols>  (47) 
cx1338a,c0300a,c1338a

>  <alias>  (47) 
None

>  <inchikey>  (47) 
JAHJLJNEYRGXQB-KKUMJFAQSA-N

>  <HIPPO ID>  (47) 
6271

>  <ref_pdb>  (47) 
c0300a

>  <generation_date>  (47) 
None

>  <submitter_name>  (47) 
None

>  <method>  (47) 
None

>  <tags>  (47) 
['Syndirella base']

>  <original SMILES>  (47) 
CC[C@@H](N)Nc1cccc([C@H](CS)C(=O)N[C@H]2CCC(=O)NC2)c1

$$$$
JAHJLJNEYRGXQB-KKUMJFAQSA-N
     RDKit          3D

 24 25  0  0  0  0  0  0  0  0999 V2000
   13.3324   13.0597   10.9492 C   0  0  0  0  0  0  0  0  0  0  0  0
   14.1663   13.2122   12.2024 C   0  0  0  0  0  0  0  0  0  0  0  0
   14.4294   11.8620   12.8284 C   0  0  1  0  0  0  0  0  0  0  0  0
   15.2766   11.1384   11.9126 N   0  0  0  0  0  0  0  0  0  0  0  0
   14.8629   12.0726   14.1861 N   0  0  0  0  0  0  0  0  0  0  0  0
   15.0400   10.9931   15.0405 C   0  0  0  0  0  0  0  0  0  0  0  0
   15.5741   11.1968   16.3043 C   0  0  0  0  0  0  0  0  0  0  0  0
   15.8075   10.1128   17.1482 C   0  0  0  0  0  0  0  0  0  0  0  0
   15.5503    8.8080   16.7149 C   0  0  0  0  0  0  0  0  0  0  0  0
   14.9777    8.5751   15.4681 C   0  0  0  0  0  0  0  0  0  0  0  0
   14.9709    7.2017   14.8057 C   0  0  2  0  0  0  0  0  0  0  0  0
   14.0255    7.0477   13.5975 C   0  0  0  0  0  0  0  0  0  0  0  0
   14.7797    7.5608   12.0260 S   0  0  0  0  0  0  0  0  0  0  0  0
   14.6711    5.9969   15.6874 C   0  0  0  0  0  0  0  0  0  0  0  0
   13.9736    6.0496   16.6979 O   0  0  0  0  0  0  0  0  0  0  0  0
   15.1022    4.7613   15.2690 N   0  0  0  0  0  0  0  0  0  0  0  0
   16.0399    4.4533   14.2125 C   0  0  1  0  0  0  0  0  0  0  0  0
   17.3002    3.7855   14.7647 C   0  0  0  0  0  0  0  0  0  0  0  0
   18.0834    3.0981   13.6528 C   0  0  0  0  0  0  0  0  0  0  0  0
   17.7696    3.6950   12.2925 C   0  0  0  0  0  0  0  0  0  0  0  0
   18.5910    4.2441   11.5658 O   0  0  0  0  0  0  0  0  0  0  0  0
   16.4295    3.6668   11.9691 N   0  0  0  0  0  0  0  0  0  0  0  0
   15.4678    3.6161   13.0549 C   0  0  0  0  0  0  0  0  0  0  0  0
   14.6465    9.6990   14.7089 C   0  0  0  0  0  0  0  0  0  0  0  0
  1  2  1  0
  2  3  1  0
  3  4  1  6
  3  5  1  0
  5  6  1  0
  6  7  2  0
  7  8  1  0
  8  9  2  0
  9 10  1  0
 10 11  1  0
 11 12  1  6
 12 13  1  0
 11 14  1  0
 14 15  2  0
 14 16  1  0
 17 16  1  1
 17 18  1  0
 18 19  1  0
 19 20  1  0
 20 21  2  0
 20 22  1  0
 22 23  1  0
 10 24  2  0
 24  6  1  0
 23 17  1  0
M  END
>  <submitter_email>  (48) 
None

>  <original ID>  (48) 
JAHJLJNEYRGXQB-KKUMJFAQSA-N

>  <ref_url>  (48) 
None

>  <ref_mols>  (48) 
cx1338a,c0300a,c1338a

>  <alias>  (48) 
None

>  <inchikey>  (48) 
JAHJLJNEYRGXQB-KKUMJFAQSA-N

>  <HIPPO ID>  (48) 
6272

>  <ref_pdb>  (48) 
c0300a

>  <generation_date>  (48) 
None

>  <submitter_name>  (48) 
None

>  <method>  (48) 
None

>  <tags>  (48) 
['Syndirella base']

>  <original SMILES>  (48) 
CC[C@@H](N)Nc1cccc([C@H](CS)C(=O)N[C@H]2CCC(=O)NC2)c1

$$$$
JAHJLJNEYRGXQB-RRFJBIMHSA-N
     RDKit          3D

 24 25  0  0  0  0  0  0  0  0999 V2000
   15.1441   15.1759   13.0203 C   0  0  0  0  0  0  0  0  0  0  0  0
   14.8347   14.1011   14.0221 C   0  0  0  0  0  0  0  0  0  0  0  0
   14.8162   12.6500   13.5067 C   0  0  2  0  0  0  0  0  0  0  0  0
   14.5822   12.4771   12.0860 N   0  0  0  0  0  0  0  0  0  0  0  0
   13.9239   11.8968   14.3411 N   0  0  0  0  0  0  0  0  0  0  0  0
   14.5538   10.9391   15.1380 C   0  0  0  0  0  0  0  0  0  0  0  0
   15.4781   11.2179   16.1268 C   0  0  0  0  0  0  0  0  0  0  0  0
   15.9793   10.1690   16.8891 C   0  0  0  0  0  0  0  0  0  0  0  0
   15.5739    8.8456   16.6491 C   0  0  0  0  0  0  0  0  0  0  0  0
   14.6656    8.5323   15.6402 C   0  0  0  0  0  0  0  0  0  0  0  0
   14.1755    7.1228   15.2734 C   0  0  1  0  0  0  0  0  0  0  0  0
   13.6813    7.0358   13.8024 C   0  0  0  0  0  0  0  0  0  0  0  0
   14.8732    7.4842   12.5018 S   0  0  0  0  0  0  0  0  0  0  0  0
   15.1158    5.9524   15.5896 C   0  0  0  0  0  0  0  0  0  0  0  0
   16.0324    6.0046   16.4003 O   0  0  0  0  0  0  0  0  0  0  0  0
   14.8749    4.7609   14.9212 N   0  0  0  0  0  0  0  0  0  0  0  0
   15.9402    4.3559   14.0407 C   0  0  1  0  0  0  0  0  0  0  0  0
   16.9908    3.4500   14.6601 C   0  0  0  0  0  0  0  0  0  0  0  0
   18.1788    3.3939   13.7015 C   0  0  0  0  0  0  0  0  0  0  0  0
   17.8687    3.7529   12.2492 C   0  0  0  0  0  0  0  0  0  0  0  0
   18.7236    4.1970   11.4843 O   0  0  0  0  0  0  0  0  0  0  0  0
   16.5752    3.6466   11.8188 N   0  0  0  0  0  0  0  0  0  0  0  0
   15.4763    3.6673   12.7527 C   0  0  0  0  0  0  0  0  0  0  0  0
   14.1438    9.6270   14.9514 C   0  0  0  0  0  0  0  0  0  0  0  0
  1  2  1  0
  2  3  1  0
  3  4  1  6
  3  5  1  0
  5  6  1  0
  6  7  2  0
  7  8  1  0
  8  9  2  0
  9 10  1  0
 10 11  1  0
 11 12  1  6
 12 13  1  0
 11 14  1  0
 14 15  2  0
 14 16  1  0
 17 16  1  1
 17 18  1  0
 18 19  1  0
 19 20  1  0
 20 21  2  0
 20 22  1  0
 22 23  1  0
 10 24  2  0
 24  6  1  0
 23 17  1  0
M  END
>  <submitter_email>  (49) 
None

>  <original ID>  (49) 
JAHJLJNEYRGXQB-RRFJBIMHSA-N

>  <ref_url>  (49) 
None

>  <ref_mols>  (49) 
cx1338a,c0300a,c1338a

>  <alias>  (49) 
None

>  <inchikey>  (49) 
JAHJLJNEYRGXQB-RRFJBIMHSA-N

>  <HIPPO ID>  (49) 
6273

>  <ref_pdb>  (49) 
c0300a

>  <generation_date>  (49) 
None

>  <submitter_name>  (49) 
None

>  <method>  (49) 
None

>  <tags>  (49) 
['Syndirella base']

>  <original SMILES>  (49) 
CC[C@H](N)Nc1cccc([C@@H](CS)C(=O)N[C@H]2CCC(=O)NC2)c1

$$$$
JAHJLJNEYRGXQB-ZNMIVQPWSA-N
     RDKit          3D

 24 25  0  0  0  0  0  0  0  0999 V2000
   13.3314   13.0825   10.9825 C   0  0  0  0  0  0  0  0  0  0  0  0
   14.2149   13.2457   12.2044 C   0  0  0  0  0  0  0  0  0  0  0  0
   14.4186   11.9016   12.8647 C   0  0  1  0  0  0  0  0  0  0  0  0
   15.2716   11.1301   11.9950 N   0  0  0  0  0  0  0  0  0  0  0  0
   14.8106   12.0950   14.2374 N   0  0  0  0  0  0  0  0  0  0  0  0
   14.7554   11.0411   15.1398 C   0  0  0  0  0  0  0  0  0  0  0  0
   15.1836   11.2197   16.4511 C   0  0  0  0  0  0  0  0  0  0  0  0
   15.1452   10.1549   17.3587 C   0  0  0  0  0  0  0  0  0  0  0  0
   14.7543    8.8757   16.9426 C   0  0  0  0  0  0  0  0  0  0  0  0
   14.3571    8.6638   15.6250 C   0  0  0  0  0  0  0  0  0  0  0  0
   14.5129    7.3185   14.8602 C   0  0  1  0  0  0  0  0  0  0  0  0
   15.7668    7.5257   14.0031 C   0  0  0  0  0  0  0  0  0  0  0  0
   17.2314    7.7841   15.0584 S   0  0  0  0  0  0  0  0  0  0  0  0
   14.4411    6.0216   15.6924 C   0  0  0  0  0  0  0  0  0  0  0  0
   13.7567    5.9835   16.7226 O   0  0  0  0  0  0  0  0  0  0  0  0
   14.9605    4.8143   15.3158 N   0  0  0  0  0  0  0  0  0  0  0  0
   15.9332    4.4442   14.3170 C   0  0  1  0  0  0  0  0  0  0  0  0
   16.8331    3.2701   14.6835 C   0  0  0  0  0  0  0  0  0  0  0  0
   18.0184    3.2892   13.7113 C   0  0  0  0  0  0  0  0  0  0  0  0
   17.7180    3.8436   12.3177 C   0  0  0  0  0  0  0  0  0  0  0  0
   18.6044    4.1857   11.5352 O   0  0  0  0  0  0  0  0  0  0  0  0
   16.4124    4.0564   11.9688 N   0  0  0  0  0  0  0  0  0  0  0  0
   15.3461    4.1128   12.9421 C   0  0  0  0  0  0  0  0  0  0  0  0
   14.2299    9.7934   14.8038 C   0  0  0  0  0  0  0  0  0  0  0  0
  1  2  1  0
  2  3  1  0
  3  4  1  6
  3  5  1  0
  5  6  1  0
  6  7  2  0
  7  8  1  0
  8  9  2  0
  9 10  1  0
 10 11  1  0
 11 12  1  1
 12 13  1  0
 11 14  1  0
 14 15  2  0
 14 16  1  0
 17 16  1  1
 17 18  1  0
 18 19  1  0
 19 20  1  0
 20 21  2  0
 20 22  1  0
 22 23  1  0
 10 24  2  0
 24  6  1  0
 23 17  1  0
M  END
>  <submitter_email>  (50) 
None

>  <original ID>  (50) 
JAHJLJNEYRGXQB-ZNMIVQPWSA-N

>  <ref_url>  (50) 
None

>  <ref_mols>  (50) 
cx1338a,c0300a,c1338a

>  <alias>  (50) 
None

>  <inchikey>  (50) 
JAHJLJNEYRGXQB-ZNMIVQPWSA-N

>  <HIPPO ID>  (50) 
6274

>  <ref_pdb>  (50) 
c0300a

>  <generation_date>  (50) 
None

>  <submitter_name>  (50) 
None

>  <method>  (50) 
None

>  <tags>  (50) 
['Syndirella base']

>  <original SMILES>  (50) 
CC[C@@H](N)Nc1cccc([C@@H](CS)C(=O)N[C@H]2CCC(=O)NC2)c1

$$$$
XDUHPRMEDNEUSF-UHFFFAOYSA-N
     RDKit          3D

 19 20  0  0  0  0  0  0  0  0999 V2000
   14.8379   13.8686   13.8993 C   0  0  0  0  0  0  0  0  0  0  0  0
   14.7556   13.7175   12.4641 N   0  0  0  0  0  0  0  0  0  0  0  0
   14.5567   12.4041   12.0278 C   0  0  0  0  0  0  0  0  0  0  0  0
   14.2944   12.1912   10.6924 C   0  0  0  0  0  0  0  0  0  0  0  0
   14.4839   11.0266   10.0364 N   0  0  0  0  0  0  0  0  0  0  0  0
   14.7603    9.9754   10.8204 C   0  0  0  0  0  0  0  0  0  0  0  0
   14.7935    8.7048   10.2679 C   0  0  0  0  0  0  0  0  0  0  0  0
   14.8431    7.5793   11.0902 C   0  0  0  0  0  0  0  0  0  0  0  0
   14.9208    7.7255   12.4810 C   0  0  0  0  0  0  0  0  0  0  0  0
   14.9767    9.0021   13.0592 C   0  0  0  0  0  0  0  0  0  0  0  0
   14.9949    9.2228   14.4566 N   0  0  0  0  0  0  0  0  0  0  0  0
   15.8316    8.3709   15.3016 C   0  0  0  0  0  0  0  0  0  0  0  0
   15.0647    7.1656   15.8756 C   0  0  0  0  0  0  0  0  0  0  0  0
   13.9000    6.9103   15.5530 O   0  0  0  0  0  0  0  0  0  0  0  0
   15.7589    6.3567   16.7785 N   0  0  0  0  0  0  0  0  0  0  0  0
   15.1551    5.0945   17.1590 C   0  0  0  0  0  0  0  0  0  0  0  0
   17.1575    6.5230   17.1386 C   0  0  0  0  0  0  0  0  0  0  0  0
   14.8770   10.1342   12.2293 C   0  0  0  0  0  0  0  0  0  0  0  0
   14.8693   11.3608   12.8044 N   0  0  0  0  0  0  0  0  0  0  0  0
  1  2  1  0
  2  3  1  0
  3  4  2  0
  4  5  1  0
  5  6  2  0
  6  7  1  0
  7  8  2  0
  8  9  1  0
  9 10  2  0
 10 11  1  0
 11 12  1  0
 12 13  1  0
 13 14  2  0
 13 15  1  0
 15 16  1  0
 15 17  1  0
 10 18  1  0
 18 19  2  0
 19  3  1  0
 18  6  1  0
M  END
>  <submitter_email>  (51) 
None

>  <original ID>  (51) 
XDUHPRMEDNEUSF-UHFFFAOYSA-N

>  <ref_url>  (51) 
None

>  <ref_mols>  (51) 
c0721a,c0839a

>  <alias>  (51) 
None

>  <inchikey>  (51) 
XDUHPRMEDNEUSF-UHFFFAOYSA-N

>  <HIPPO ID>  (51) 
6275

>  <ref_pdb>  (51) 
c0300a

>  <generation_date>  (51) 
None

>  <submitter_name>  (51) 
None

>  <method>  (51) 
None

>  <tags>  (51) 
['Syndirella base']

>  <original SMILES>  (51) 
CNc1cnc2cccc(NCC(=O)N(C)C)c2n1

$$$$
MMXSHBZOILNLPJ-UHFFFAOYSA-N
     RDKit          3D

 14 15  0  0  0  0  0  0  0  0999 V2000
   13.4627   13.2134   13.8958 C   0  0  0  0  0  0  0  0  0  0  0  0
   14.3058   13.0535   12.6365 C   0  0  0  0  0  0  0  0  0  0  0  0
   15.2394   14.2519   12.7030 C   0  0  0  0  0  0  0  0  0  0  0  0
   13.5096   13.1566   11.3159 C   0  0  0  0  0  0  0  0  0  0  0  0
   14.8463   11.6333   12.6262 C   0  0  0  0  0  0  0  0  0  0  0  0
   15.1265   10.9216   13.7809 C   0  0  0  0  0  0  0  0  0  0  0  0
   15.1493    9.5760   13.8151 N   0  0  0  0  0  0  0  0  0  0  0  0
   14.9543    8.9451   12.6464 C   0  0  0  0  0  0  0  0  0  0  0  0
   14.8571    7.5637   12.6234 C   0  0  0  0  0  0  0  0  0  0  0  0
   14.6444    6.8849   11.4266 C   0  0  0  0  0  0  0  0  0  0  0  0
   14.5565    7.5960   10.2357 C   0  0  0  0  0  0  0  0  0  0  0  0
   14.7094    8.9777   10.2306 C   0  0  0  0  0  0  0  0  0  0  0  0
   14.8668    9.6613   11.4274 C   0  0  0  0  0  0  0  0  0  0  0  0
   14.8664   10.9978   11.4272 N   0  0  0  0  0  0  0  0  0  0  0  0
  1  2  1  0
  2  3  1  0
  2  4  1  0
  2  5  1  0
  5  6  2  0
  6  7  1  0
  7  8  2  0
  8  9  1  0
  9 10  2  0
 10 11  1  0
 11 12  2  0
 12 13  1  0
 13 14  2  0
 14  5  1  0
 13  8  1  0
M  END
>  <submitter_email>  (52) 
None

>  <original ID>  (52) 
MMXSHBZOILNLPJ-UHFFFAOYSA-N

>  <ref_url>  (52) 
None

>  <ref_mols>  (52) 
c0839a,c1299a

>  <alias>  (52) 
None

>  <inchikey>  (52) 
MMXSHBZOILNLPJ-UHFFFAOYSA-N

>  <HIPPO ID>  (52) 
6276

>  <ref_pdb>  (52) 
c0300a

>  <generation_date>  (52) 
None

>  <submitter_name>  (52) 
None

>  <method>  (52) 
None

>  <tags>  (52) 
['Syndirella base']

>  <original SMILES>  (52) 
CC(C)(C)c1cnc2ccccc2n1

$$$$
RRJMGDPCLBVSAU-UHFFFAOYSA-N
     RDKit          3D

 21 23  0  0  0  0  0  0  0  0999 V2000
   17.0192   11.9641   12.6649 O   0  0  0  0  0  0  0  0  0  0  0  0
   17.5313   11.7258   11.5771 C   0  0  0  0  0  0  0  0  0  0  0  0
   16.9559   10.9587   10.5808 N   0  0  0  0  0  0  0  0  0  0  0  0
   15.9683    9.9750   10.7541 C   0  0  0  0  0  0  0  0  0  0  0  0
   15.4107    9.4230    9.6008 C   0  0  0  0  0  0  0  0  0  0  0  0
   14.5399    8.3412    9.6877 C   0  0  0  0  0  0  0  0  0  0  0  0
   14.2806    7.7575   10.9211 C   0  0  0  0  0  0  0  0  0  0  0  0
   14.8066    8.3246   12.0793 C   0  0  0  0  0  0  0  0  0  0  0  0
   15.6191    9.4549   11.9995 C   0  0  0  0  0  0  0  0  0  0  0  0
   18.9156   12.2040   11.2937 C   0  0  0  0  0  0  0  0  0  0  0  0
   19.7600   11.3563   10.5701 C   0  0  0  0  0  0  0  0  0  0  0  0
   21.1042   11.6615   10.4050 C   0  0  0  0  0  0  0  0  0  0  0  0
   21.6263   12.8593   10.9007 C   0  0  0  0  0  0  0  0  0  0  0  0
   23.0452   13.1936   10.5408 C   0  0  0  0  0  0  0  0  0  0  0  0
   23.0843   13.3509    9.1284 O   0  0  0  0  0  0  0  0  0  0  0  0
   20.7962   13.6971   11.6588 C   0  0  0  0  0  0  0  0  0  0  0  0
   19.4379   13.3757   11.8571 C   0  0  0  0  0  0  0  0  0  0  0  0
   18.5909   14.1773   12.5812 O   0  0  0  0  0  0  0  0  0  0  0  0
   19.1569   15.4402   12.9297 C   0  0  0  0  0  0  0  0  0  0  0  0
   20.6153   15.2974   13.3144 C   0  0  0  0  0  0  0  0  0  0  0  0
   21.3628   14.8356   12.1856 O   0  0  0  0  0  0  0  0  0  0  0  0
  1  2  2  0
  2  3  1  0
  3  4  1  0
  4  5  2  0
  5  6  1  0
  6  7  2  0
  7  8  1  0
  8  9  2  0
  2 10  1  0
 10 11  2  0
 11 12  1  0
 12 13  2  0
 13 14  1  0
 14 15  1  0
 13 16  1  0
 16 17  2  0
 17 18  1  0
 18 19  1  0
 19 20  1  0
 20 21  1  0
  9  4  1  0
 17 10  1  0
 21 16  1  0
M  END
>  <submitter_email>  (53) 
None

>  <original ID>  (53) 
RRJMGDPCLBVSAU-UHFFFAOYSA-N

>  <ref_url>  (53) 
None

>  <ref_mols>  (53) 
cx0692a,c0692a,c1379a,c1379e

>  <alias>  (53) 
None

>  <inchikey>  (53) 
RRJMGDPCLBVSAU-UHFFFAOYSA-N

>  <HIPPO ID>  (53) 
6277

>  <ref_pdb>  (53) 
c0270a

>  <generation_date>  (53) 
None

>  <submitter_name>  (53) 
None

>  <method>  (53) 
None

>  <tags>  (53) 
['Syndirella base']

>  <original SMILES>  (53) 
O=C(Nc1ccccc1)c1ccc(CO)c2c1OCCO2

$$$$
DGASNXVGKHJXGC-UHFFFAOYSA-N
     RDKit          3D

 18 20  0  0  0  0  0  0  0  0999 V2000
   14.7841    9.7548    9.7323 C   0  0  0  0  0  0  0  0  0  0  0  0
   14.6592   10.3981   11.0202 N   0  0  0  0  0  0  0  0  0  0  0  0
   14.5044   11.7444   11.2343 C   0  0  0  0  0  0  0  0  0  0  0  0
   14.0753   12.6131   10.3082 N   0  0  0  0  0  0  0  0  0  0  0  0
   14.7656   12.0878   12.4576 N   0  0  0  0  0  0  0  0  0  0  0  0
   14.9443   10.9101   13.1132 C   0  0  0  0  0  0  0  0  0  0  0  0
   15.2667   10.7414   14.4568 C   0  0  0  0  0  0  0  0  0  0  0  0
   15.5118    9.4498   14.8943 C   0  0  0  0  0  0  0  0  0  0  0  0
   15.3512    8.3589   14.0533 C   0  0  0  0  0  0  0  0  0  0  0  0
   14.9109    8.4799   12.7306 C   0  0  0  0  0  0  0  0  0  0  0  0
   14.6766    7.3573   11.9523 N   0  0  0  0  0  0  0  0  0  0  0  0
   14.2493    6.1058   12.5867 C   0  0  0  0  0  0  0  0  0  0  0  0
   12.7939    6.0142   12.9477 C   0  0  0  0  0  0  0  0  0  0  0  0
   11.8175    5.3080   12.2752 C   0  0  0  0  0  0  0  0  0  0  0  0
   10.5408    5.4154   12.8926 C   0  0  0  0  0  0  0  0  0  0  0  0
   10.5781    6.2007   14.0212 C   0  0  0  0  0  0  0  0  0  0  0  0
   12.1548    6.7775   14.3449 S   0  0  0  0  0  0  0  0  0  0  0  0
   14.8138    9.8077   12.2624 C   0  0  0  0  0  0  0  0  0  0  0  0
  1  2  1  0
  2  3  1  0
  3  4  1  0
  3  5  2  0
  5  6  1  0
  6  7  2  0
  7  8  1  0
  8  9  2  0
  9 10  1  0
 10 11  1  0
 11 12  1  0
 12 13  1  0
 13 14  2  0
 14 15  1  0
 15 16  2  0
 16 17  1  0
 10 18  2  0
 18  2  1  0
 18  6  1  0
 17 13  1  0
M  END
>  <submitter_email>  (54) 
None

>  <original ID>  (54) 
DGASNXVGKHJXGC-UHFFFAOYSA-N

>  <ref_url>  (54) 
None

>  <ref_mols>  (54) 
c0892a,c1203a

>  <alias>  (54) 
None

>  <inchikey>  (54) 
DGASNXVGKHJXGC-UHFFFAOYSA-N

>  <HIPPO ID>  (54) 
6278

>  <ref_pdb>  (54) 
c1454a

>  <generation_date>  (54) 
None

>  <submitter_name>  (54) 
None

>  <method>  (54) 
None

>  <tags>  (54) 
['Syndirella base']

>  <original SMILES>  (54) 
Cn1c(N)nc2cccc(NCc3cccs3)c21

$$$$
NEMWMYMPRDCSAZ-UHFFFAOYSA-N
     RDKit          3D

 14 15  0  0  0  0  0  0  0  0999 V2000
   15.2975   12.1520   15.6726 C   0  0  0  0  0  0  0  0  0  0  0  0
   14.6437   12.6515   14.4807 N   0  0  0  0  0  0  0  0  0  0  0  0
   14.6838   11.7489   13.3886 C   0  0  0  0  0  0  0  0  0  0  0  0
   14.8286   10.4276   13.5640 N   0  0  0  0  0  0  0  0  0  0  0  0
   14.8501    9.6762   12.4504 C   0  0  0  0  0  0  0  0  0  0  0  0
   14.8869    8.2976   12.5858 C   0  0  0  0  0  0  0  0  0  0  0  0
   14.8518    7.4897   11.4587 C   0  0  0  0  0  0  0  0  0  0  0  0
   14.9250    6.1633   11.6015 F   0  0  0  0  0  0  0  0  0  0  0  0
   14.7800    8.0371   10.1871 C   0  0  0  0  0  0  0  0  0  0  0  0
   14.7875    9.4192   10.0287 C   0  0  0  0  0  0  0  0  0  0  0  0
   14.7920   10.2501   11.1407 C   0  0  0  0  0  0  0  0  0  0  0  0
   14.6558   11.5704   10.9624 N   0  0  0  0  0  0  0  0  0  0  0  0
   14.5401   12.2908   12.0881 C   0  0  0  0  0  0  0  0  0  0  0  0
   14.4539   13.6753   11.9636 N   0  0  0  0  0  0  0  0  0  0  0  0
  1  2  1  0
  2  3  1  0
  3  4  2  0
  4  5  1  0
  5  6  2  0
  6  7  1  0
  7  8  1  0
  7  9  2  0
  9 10  1  0
 10 11  2  0
 11 12  1  0
 12 13  2  0
 13 14  1  0
 13  3  1  0
 11  5  1  0
M  END
>  <submitter_email>  (55) 
None

>  <original ID>  (55) 
NEMWMYMPRDCSAZ-UHFFFAOYSA-N

>  <ref_url>  (55) 
None

>  <ref_mols>  (55) 
c0839a,c1410a

>  <alias>  (55) 
None

>  <inchikey>  (55) 
NEMWMYMPRDCSAZ-UHFFFAOYSA-N

>  <HIPPO ID>  (55) 
6279

>  <ref_pdb>  (55) 
c0300a

>  <generation_date>  (55) 
None

>  <submitter_name>  (55) 
None

>  <method>  (55) 
None

>  <tags>  (55) 
['Syndirella base']

>  <original SMILES>  (55) 
CNc1nc2cc(F)ccc2nc1N

$$$$
OLQDFRKRSFBPML-UHFFFAOYSA-N
     RDKit          3D

 17 17  0  0  0  0  0  0  0  0999 V2000
   23.7116   13.1348   14.4767 C   0  0  0  0  0  0  0  0  0  0  0  0
   22.5500   13.3829   13.6424 N   0  0  0  0  0  0  0  0  0  0  0  0
   22.8941   13.4569   12.2297 N   0  0  0  0  0  0  0  0  0  0  0  0
   22.2896   12.3684   11.4379 C   0  0  0  0  0  0  0  0  0  0  0  0
   20.7760   12.3464   11.3779 C   0  0  0  0  0  0  0  0  0  0  0  0
   20.1279   11.3170   10.7033 C   0  0  0  0  0  0  0  0  0  0  0  0
   18.7353   11.2349   10.7112 C   0  0  0  0  0  0  0  0  0  0  0  0
   17.9748   12.2044   11.3669 C   0  0  0  0  0  0  0  0  0  0  0  0
   18.5882   13.2860   11.9981 C   0  0  0  0  0  0  0  0  0  0  0  0
   17.7991   14.3396   12.4810 N   0  0  0  0  0  0  0  0  0  0  0  0
   18.3232   15.1450   13.5786 C   0  0  0  0  0  0  0  0  0  0  0  0
   19.3623   16.2060   13.2065 C   0  0  0  0  0  0  0  0  0  0  0  0
   20.4320   16.2732   14.3215 C   0  0  0  0  0  0  0  0  0  0  0  0
   21.5427   17.2216   14.1868 N   0  0  0  0  0  0  0  0  0  0  0  0
   21.2859   18.3506   13.3170 C   0  0  0  0  0  0  0  0  0  0  0  0
   22.8113   16.5706   13.8894 C   0  0  0  0  0  0  0  0  0  0  0  0
   19.9825   13.3328   11.9719 C   0  0  0  0  0  0  0  0  0  0  0  0
  1  2  1  0
  2  3  1  0
  3  4  1  0
  4  5  1  0
  5  6  2  0
  6  7  1  0
  7  8  2  0
  8  9  1  0
  9 10  1  0
 10 11  1  0
 11 12  1  0
 12 13  1  0
 13 14  1  0
 14 15  1  0
 14 16  1  0
  9 17  2  0
 17  5  1  0
M  END
>  <submitter_email>  (56) 
None

>  <original ID>  (56) 
OLQDFRKRSFBPML-UHFFFAOYSA-N

>  <ref_url>  (56) 
None

>  <ref_mols>  (56) 
c0312a,c1213a,c1213b

>  <alias>  (56) 
None

>  <inchikey>  (56) 
OLQDFRKRSFBPML-UHFFFAOYSA-N

>  <HIPPO ID>  (56) 
6280

>  <ref_pdb>  (56) 
c0270a

>  <generation_date>  (56) 
None

>  <submitter_name>  (56) 
None

>  <method>  (56) 
None

>  <tags>  (56) 
['Syndirella base']

>  <original SMILES>  (56) 
CNNCc1cccc(NCCCN(C)C)c1

$$$$
KRUZICJRZZZCFH-UHFFFAOYSA-N
     RDKit          3D

 23 25  0  0  0  0  0  0  0  0999 V2000
   15.5472    8.9987    9.3072 O   0  0  0  0  0  0  0  0  0  0  0  0
   15.9031   10.1877   10.0503 S   0  0  0  0  0  6  0  0  0  0  0  0
   15.2767   11.4587    9.7438 O   0  0  0  0  0  0  0  0  0  0  0  0
   17.5517   10.2879   10.0665 N   0  0  0  0  0  0  0  0  0  0  0  0
   18.3569   11.3318   10.5457 C   0  0  0  0  0  0  0  0  0  0  0  0
   17.9904   12.3875   11.3514 C   0  0  0  0  0  0  0  0  0  0  0  0
   18.9728   13.2974   11.7495 C   0  0  0  0  0  0  0  0  0  0  0  0
   20.2905   13.1072   11.3576 C   0  0  0  0  0  0  0  0  0  0  0  0
   20.5740   12.0037   10.5798 C   0  0  0  0  0  0  0  0  0  0  0  0
   19.6362   11.1174   10.1814 N   0  0  0  0  0  0  0  0  0  0  0  0
   15.5064    9.8368   11.7390 C   0  0  0  0  0  0  0  0  0  0  0  0
   15.6388    8.5232   12.2007 C   0  0  0  0  0  0  0  0  0  0  0  0
   15.4614    8.2483   13.5536 C   0  0  0  0  0  0  0  0  0  0  0  0
   15.1630    9.2874   14.4364 C   0  0  0  0  0  0  0  0  0  0  0  0
   14.9589   10.5972   13.9676 C   0  0  0  0  0  0  0  0  0  0  0  0
   14.6218   11.7150   14.9288 C   0  0  0  0  0  0  0  0  0  0  0  0
   15.7654   12.3060   15.6992 C   0  0  0  0  0  0  0  0  0  0  0  0
   15.9017   12.3957   17.0728 C   0  0  0  0  0  0  0  0  0  0  0  0
   17.1104   13.0472   17.4605 C   0  0  0  0  0  0  0  0  0  0  0  0
   17.8446   13.4549   16.3707 C   0  0  0  0  0  0  0  0  0  0  0  0
   17.0572   13.0916   14.9007 S   0  0  0  0  0  0  0  0  0  0  0  0
   15.0680   10.8478   12.5952 C   0  0  0  0  0  0  0  0  0  0  0  0
   14.6987   12.0958   12.1663 O   0  0  0  0  0  0  0  0  0  0  0  0
  1  2  2  0
  2  3  2  0
  2  4  1  0
  4  5  1  0
  5  6  2  0
  6  7  1  0
  7  8  2  0
  8  9  1  0
  9 10  2  0
  2 11  1  0
 11 12  2  0
 12 13  1  0
 13 14  2  0
 14 15  1  0
 15 16  1  0
 16 17  1  0
 17 18  2  0
 18 19  1  0
 19 20  2  0
 20 21  1  0
 15 22  2  0
 22 23  1  0
 10  5  1  0
 22 11  1  0
 21 17  1  0
M  END
>  <submitter_email>  (57) 
None

>  <original ID>  (57) 
KRUZICJRZZZCFH-UHFFFAOYSA-N

>  <ref_url>  (57) 
None

>  <ref_mols>  (57) 
cx0289a,c0289a,c0892a

>  <alias>  (57) 
None

>  <inchikey>  (57) 
KRUZICJRZZZCFH-UHFFFAOYSA-N

>  <HIPPO ID>  (57) 
6281

>  <ref_pdb>  (57) 
c0289a

>  <generation_date>  (57) 
None

>  <submitter_name>  (57) 
None

>  <method>  (57) 
None

>  <tags>  (57) 
['Syndirella base']

>  <original SMILES>  (57) 
O=S(=O)(Nc1ccccn1)c1cccc(Cc2cccs2)c1O

$$$$
GXJARPZGKFADOS-UHFFFAOYSA-N
     RDKit          3D

 15 16  0  0  0  0  0  0  0  0999 V2000
   15.6623    9.4324    9.9632 C   0  0  0  0  0  0  0  0  0  0  0  0
   16.6227   10.4146   10.3937 N   0  0  0  0  0  0  0  0  0  0  0  0
   16.4380   11.0941   11.5768 C   0  0  0  0  0  0  0  0  0  0  0  0
   15.5357   10.8131   12.3611 O   0  0  0  0  0  0  0  0  0  0  0  0
   17.3630   12.1966   11.8350 C   0  0  0  0  0  0  0  0  0  0  0  0
   17.0220   13.3021   12.5987 C   0  0  0  0  0  0  0  0  0  0  0  0
   18.1077   14.1255   12.6954 N   0  0  0  0  0  0  0  0  0  0  0  0
   18.1324   15.3832   13.4085 C   0  0  0  0  0  0  0  0  0  0  0  0
   19.1835   13.5731   12.0384 C   0  0  0  0  0  0  0  0  0  0  0  0
   20.5122   14.0132   11.9271 C   0  0  0  0  0  0  0  0  0  0  0  0
   21.4208   13.2100   11.2329 C   0  0  0  0  0  0  0  0  0  0  0  0
   21.0160   12.0276   10.6296 C   0  0  0  0  0  0  0  0  0  0  0  0
   21.9451   11.1686   10.0408 N   0  0  0  0  0  0  0  0  0  0  0  0
   19.6902   11.5962   10.7714 C   0  0  0  0  0  0  0  0  0  0  0  0
   18.7414   12.3748   11.4682 C   0  0  0  0  0  0  0  0  0  0  0  0
  1  2  1  0
  2  3  1  0
  3  4  2  0
  3  5  1  0
  5  6  2  0
  6  7  1  0
  7  8  1  0
  7  9  1  0
  9 10  2  0
 10 11  1  0
 11 12  2  0
 12 13  1  0
 12 14  1  0
 14 15  2  0
 15  5  1  0
 15  9  1  0
M  END
>  <submitter_email>  (58) 
None

>  <original ID>  (58) 
GXJARPZGKFADOS-UHFFFAOYSA-N

>  <ref_url>  (58) 
None

>  <ref_mols>  (58) 
cx1260a,c0270a,c1260a

>  <alias>  (58) 
None

>  <inchikey>  (58) 
GXJARPZGKFADOS-UHFFFAOYSA-N

>  <HIPPO ID>  (58) 
6282

>  <ref_pdb>  (58) 
c0270a

>  <generation_date>  (58) 
None

>  <submitter_name>  (58) 
None

>  <method>  (58) 
None

>  <tags>  (58) 
['Syndirella base']

>  <original SMILES>  (58) 
CNC(=O)c1cn(C)c2ccc(N)cc12

$$$$
KFMQBLWKRFIPBE-UHFFFAOYSA-N
     RDKit          3D

 24 27  0  0  0  0  0  0  0  0999 V2000
   18.4379   15.1230   13.0586 C   0  0  0  0  0  0  0  0  0  0  0  0
   18.6064   13.9095   12.2901 N   0  0  0  0  0  0  0  0  0  0  0  0
   17.6074   13.0288   11.9869 C   0  0  0  0  0  0  0  0  0  0  0  0
   18.1330   11.9753   11.2625 C   0  0  0  0  0  0  0  0  0  0  0  0
   17.4555   10.7016   10.8629 C   0  0  0  0  0  0  0  0  0  0  0  0
   16.3144   10.8878    9.9849 N   0  0  0  0  0  0  0  0  0  0  0  0
   15.4508    9.7079    9.8601 C   0  0  0  0  0  0  0  0  0  0  0  0
   15.0736    9.0780   11.1791 C   0  0  0  0  0  0  0  0  0  0  0  0
   15.1234    7.6832   11.3066 C   0  0  0  0  0  0  0  0  0  0  0  0
   15.0333    7.0994   12.5608 C   0  0  0  0  0  0  0  0  0  0  0  0
   14.9075    7.9110   13.6857 C   0  0  0  0  0  0  0  0  0  0  0  0
   14.7753    9.3047   13.5505 C   0  0  0  0  0  0  0  0  0  0  0  0
   14.6535   10.1595   14.6516 C   0  0  0  0  0  0  0  0  0  0  0  0
   14.4839   11.5280   14.4528 C   0  0  0  0  0  0  0  0  0  0  0  0
   14.3931   12.0013   13.1634 C   0  0  0  0  0  0  0  0  0  0  0  0
   14.1358   13.3264   12.8871 N   0  0  0  0  0  0  0  0  0  0  0  0
   14.5149   11.2003   12.1076 N   0  0  0  0  0  0  0  0  0  0  0  0
   14.7671    9.8900   12.2773 C   0  0  0  0  0  0  0  0  0  0  0  0
   19.5287   12.2542   11.1211 C   0  0  0  0  0  0  0  0  0  0  0  0
   20.6003   11.5531   10.5362 C   0  0  0  0  0  0  0  0  0  0  0  0
   21.8884   12.0865   10.5760 C   0  0  0  0  0  0  0  0  0  0  0  0
   22.1241   13.3024   11.2045 C   0  0  0  0  0  0  0  0  0  0  0  0
   21.0863   14.0118   11.8150 C   0  0  0  0  0  0  0  0  0  0  0  0
   19.7959   13.4663   11.7626 C   0  0  0  0  0  0  0  0  0  0  0  0
  1  2  1  0
  2  3  1  0
  3  4  2  0
  4  5  1  0
  5  6  1  0
  6  7  1  0
  7  8  1  0
  8  9  2  0
  9 10  1  0
 10 11  2  0
 11 12  1  0
 12 13  2  0
 13 14  1  0
 14 15  2  0
 15 16  1  0
 15 17  1  0
 17 18  2  0
  4 19  1  0
 19 20  2  0
 20 21  1  0
 21 22  2  0
 22 23  1  0
 23 24  2  0
 24  2  1  0
 18  8  1  0
 24 19  1  0
 18 12  1  0
M  END
>  <submitter_email>  (59) 
None

>  <original ID>  (59) 
KFMQBLWKRFIPBE-UHFFFAOYSA-N

>  <ref_url>  (59) 
None

>  <ref_mols>  (59) 
cx1338a,c0270a,c1338a

>  <alias>  (59) 
None

>  <inchikey>  (59) 
KFMQBLWKRFIPBE-UHFFFAOYSA-N

>  <HIPPO ID>  (59) 
6283

>  <ref_pdb>  (59) 
c0270a

>  <generation_date>  (59) 
None

>  <submitter_name>  (59) 
None

>  <method>  (59) 
None

>  <tags>  (59) 
['Syndirella base']

>  <original SMILES>  (59) 
Cn1cc(CNCc2cccc3ccc(N)nc23)c2ccccc21

$$$$
LKSJOAHCUYUSRB-UHFFFAOYSA-N
     RDKit          3D

 22 25  0  0  0  0  0  0  0  0999 V2000
   18.0516    4.7160   11.6786 O   0  0  0  0  0  0  0  0  0  0  0  0
   17.4051    4.2665   12.6262 C   0  0  0  0  0  0  0  0  0  0  0  0
   18.0041    4.3194   13.9894 C   0  0  0  0  0  0  0  0  0  0  0  0
   17.4012    3.7176   15.0213 C   0  0  0  0  0  0  0  0  0  0  0  0
   16.1530    3.0362   14.8283 C   0  0  0  0  0  0  0  0  0  0  0  0
   15.5601    3.0728   13.6314 C   0  0  0  0  0  0  0  0  0  0  0  0
   16.1328    3.7095   12.5436 N   0  0  0  0  0  0  0  0  0  0  0  0
   15.4241    3.7174   11.2562 C   0  0  0  0  0  0  0  0  0  0  0  0
   14.8168    5.0545   10.9547 C   0  0  0  0  0  0  0  0  0  0  0  0
   13.8443    5.2105   10.0405 N   0  0  0  0  0  0  0  0  0  0  0  0
   13.7086    6.6060    9.9497 O   0  0  0  0  0  0  0  0  0  0  0  0
   14.6055    7.1444   10.8316 C   0  0  0  0  0  0  0  0  0  0  0  0
   14.6395    8.5911   10.9759 C   0  0  0  0  0  0  0  0  0  0  0  0
   14.5618    9.4682    9.8928 C   0  0  0  0  0  0  0  0  0  0  0  0
   14.4931   10.8308    9.9626 N   0  0  0  0  0  0  0  0  0  0  0  0
   14.4942   11.2946   11.2269 C   0  0  0  0  0  0  0  0  0  0  0  0
   14.3172   12.6075   11.5846 N   0  0  0  0  0  0  0  0  0  0  0  0
   14.4024   12.7202   12.9515 C   0  0  0  0  0  0  0  0  0  0  0  0
   14.6095   11.4626   13.4765 C   0  0  0  0  0  0  0  0  0  0  0  0
   14.6340   10.5480   12.3928 C   0  0  0  0  0  0  0  0  0  0  0  0
   14.7345    9.1520   12.2612 C   0  0  0  0  0  0  0  0  0  0  0  0
   15.2826    6.2345   11.4945 N   0  0  0  0  0  0  0  0  0  0  0  0
  1  2  2  0
  2  3  1  0
  3  4  2  0
  4  5  1  0
  5  6  2  0
  6  7  1  0
  7  8  1  0
  8  9  1  0
  9 10  2  0
 10 11  1  0
 11 12  1  0
 12 13  1  0
 13 14  2  0
 14 15  1  0
 15 16  2  0
 16 17  1  0
 17 18  1  0
 18 19  2  0
 19 20  1  0
 20 21  2  0
 12 22  2  0
  7  2  1  0
 22  9  1  0
 21 13  1  0
 20 16  1  0
M  END
>  <submitter_email>  (60) 
None

>  <original ID>  (60) 
LKSJOAHCUYUSRB-UHFFFAOYSA-N

>  <ref_url>  (60) 
None

>  <ref_mols>  (60) 
c0316a,c1402a

>  <alias>  (60) 
None

>  <inchikey>  (60) 
LKSJOAHCUYUSRB-UHFFFAOYSA-N

>  <HIPPO ID>  (60) 
6284

>  <ref_pdb>  (60) 
c1454a

>  <generation_date>  (60) 
None

>  <submitter_name>  (60) 
None

>  <method>  (60) 
None

>  <tags>  (60) 
['Syndirella base']

>  <original SMILES>  (60) 
O=c1ccccn1Cc1noc(-c2cnc3[nH]ccc3c2)n1

$$$$
XMHJIXAUMMKGLT-UHFFFAOYSA-N
     RDKit          3D

 14 14  0  0  0  0  0  0  0  0999 V2000
   21.5314   11.4836   10.5043 C   0  0  0  0  0  0  0  0  0  0  0  0
   20.1124   11.3556   10.4381 O   0  0  0  0  0  0  0  0  0  0  0  0
   19.4678   12.4101   11.1369 C   0  0  0  0  0  0  0  0  0  0  0  0
   17.9951   12.1000   11.4176 C   0  0  0  0  0  0  0  0  0  0  0  0
   17.3839   12.7475   12.2664 O   0  0  0  0  0  0  0  0  0  0  0  0
   17.4629   11.0999   10.6362 N   0  0  0  0  0  0  0  0  0  0  0  0
   16.3323   10.2801   10.8588 C   0  0  0  0  0  0  0  0  0  0  0  0
   16.0387    9.3635    9.8387 C   0  0  0  0  0  0  0  0  0  0  0  0
   15.1255    8.3314   10.0368 C   0  0  0  0  0  0  0  0  0  0  0  0
   14.5735    8.1505   11.2842 C   0  0  0  0  0  0  0  0  0  0  0  0
   13.7487    7.0821   11.4736 O   0  0  0  0  0  0  0  0  0  0  0  0
   14.7961    9.0866   12.2851 C   0  0  0  0  0  0  0  0  0  0  0  0
   15.6016   10.2068   12.0546 C   0  0  0  0  0  0  0  0  0  0  0  0
   15.4060   11.2882   12.9343 N   0  0  0  0  0  0  0  0  0  0  0  0
  1  2  1  0
  2  3  1  0
  3  4  1  0
  4  5  2  0
  4  6  1  0
  6  7  1  0
  7  8  2  0
  8  9  1  0
  9 10  2  0
 10 11  1  0
 10 12  1  0
 12 13  2  0
 13 14  1  0
 13  7  1  0
M  END
>  <submitter_email>  (61) 
None

>  <original ID>  (61) 
XMHJIXAUMMKGLT-UHFFFAOYSA-N

>  <ref_url>  (61) 
None

>  <ref_mols>  (61) 
cx0935a,cx1116a,c0935a,c1116a

>  <alias>  (61) 
None

>  <inchikey>  (61) 
XMHJIXAUMMKGLT-UHFFFAOYSA-N

>  <HIPPO ID>  (61) 
6285

>  <ref_pdb>  (61) 
c0270a

>  <generation_date>  (61) 
None

>  <submitter_name>  (61) 
None

>  <method>  (61) 
None

>  <tags>  (61) 
['Syndirella base']

>  <original SMILES>  (61) 
COCC(=O)Nc1ccc(O)cc1N

$$$$
IMOYJNKITCRRFB-UHFFFAOYSA-N
     RDKit          3D

 19 21  0  0  0  0  0  0  0  0999 V2000
   17.0398   12.0948   12.5577 O   0  0  0  0  0  0  0  0  0  0  0  0
   17.6212   11.7513   11.5333 C   0  0  0  0  0  0  0  0  0  0  0  0
   17.1059   10.9110   10.5695 N   0  0  0  0  0  0  0  0  0  0  0  0
   16.0777    9.9712   10.7594 C   0  0  0  0  0  0  0  0  0  0  0  0
   15.5293    9.3794    9.6218 C   0  0  0  0  0  0  0  0  0  0  0  0
   14.6212    8.3316    9.7413 C   0  0  0  0  0  0  0  0  0  0  0  0
   14.3185    7.8166   10.9947 C   0  0  0  0  0  0  0  0  0  0  0  0
   14.8334    8.4260   12.1360 C   0  0  0  0  0  0  0  0  0  0  0  0
   15.6801    9.5272   12.0203 C   0  0  0  0  0  0  0  0  0  0  0  0
   19.0130   12.2441   11.3188 C   0  0  0  0  0  0  0  0  0  0  0  0
   19.4385   13.3587   12.0529 C   0  0  0  0  0  0  0  0  0  0  0  0
   20.7733   13.7580   11.9968 C   0  0  0  0  0  0  0  0  0  0  0  0
   21.3676   15.0827   12.8873 Cl  0  0  0  0  0  0  0  0  0  0  0  0
   21.6988   13.0755   11.1930 C   0  0  0  0  0  0  0  0  0  0  0  0
   23.0322   13.3017   10.9244 N   0  0  0  0  0  0  0  0  0  0  0  0
   23.3831   12.3720   10.0691 C   0  0  0  0  0  0  0  0  0  0  0  0
   22.3461   11.5365    9.7852 N   0  0  0  0  0  0  0  0  0  0  0  0
   21.2474   11.9620   10.4894 C   0  0  0  0  0  0  0  0  0  0  0  0
   19.9229   11.5086   10.5372 C   0  0  0  0  0  0  0  0  0  0  0  0
  1  2  2  0
  2  3  1  0
  3  4  1  0
  4  5  2  0
  5  6  1  0
  6  7  2  0
  7  8  1  0
  8  9  2  0
  2 10  1  0
 10 11  2  0
 11 12  1  0
 12 13  1  0
 12 14  2  0
 14 15  1  0
 15 16  2  0
 16 17  1  0
 17 18  1  0
 18 19  2  0
  9  4  1  0
 19 10  1  0
 18 14  1  0
M  END
>  <submitter_email>  (62) 
None

>  <original ID>  (62) 
IMOYJNKITCRRFB-UHFFFAOYSA-N

>  <ref_url>  (62) 
None

>  <ref_mols>  (62) 
cx0692a,c0692a,c0894a,c0894e

>  <alias>  (62) 
None

>  <inchikey>  (62) 
IMOYJNKITCRRFB-UHFFFAOYSA-N

>  <HIPPO ID>  (62) 
6286

>  <ref_pdb>  (62) 
c0270a

>  <generation_date>  (62) 
None

>  <submitter_name>  (62) 
None

>  <method>  (62) 
None

>  <tags>  (62) 
['Syndirella base']

>  <original SMILES>  (62) 
O=C(Nc1ccccc1)c1cc(Cl)c2nc[nH]c2c1

$$$$
LXNXWBLKTWRVII-UHFFFAOYSA-N
     RDKit          3D

 18 19  0  0  0  0  0  0  0  0999 V2000
   21.6523   10.9951   10.4904 C   0  0  0  0  0  0  0  0  0  0  0  0
   20.2878   11.4104   10.5510 O   0  0  0  0  0  0  0  0  0  0  0  0
   20.0703   12.6373   11.1124 C   0  0  0  0  0  0  0  0  0  0  0  0
   21.0435   13.6457   11.1200 C   0  0  0  0  0  0  0  0  0  0  0  0
   20.8135   14.8562   11.7765 C   0  0  0  0  0  0  0  0  0  0  0  0
   19.6079   15.0976   12.4124 C   0  0  0  0  0  0  0  0  0  0  0  0
   18.6239   14.1253   12.3796 C   0  0  0  0  0  0  0  0  0  0  0  0
   18.8342   12.8975   11.7200 C   0  0  0  0  0  0  0  0  0  0  0  0
   17.7190   11.9388   11.8912 C   0  0  0  0  0  0  0  0  0  0  0  0
   17.1078   12.0291   12.9571 O   0  0  0  0  0  0  0  0  0  0  0  0
   17.3928   11.0610   10.8742 N   0  0  0  0  0  0  0  0  0  0  0  0
   16.3666   10.0843   10.9544 C   0  0  0  0  0  0  0  0  0  0  0  0
   15.9130    9.4845    9.7789 C   0  0  0  0  0  0  0  0  0  0  0  0
   14.9446    8.4786    9.8195 C   0  0  0  0  0  0  0  0  0  0  0  0
   14.4856    8.0110   11.0373 C   0  0  0  0  0  0  0  0  0  0  0  0
   13.5782    6.9949   11.0412 O   0  0  0  0  0  0  0  0  0  0  0  0
   14.9175    8.5914   12.2188 C   0  0  0  0  0  0  0  0  0  0  0  0
   15.8253    9.6484   12.1706 C   0  0  0  0  0  0  0  0  0  0  0  0
  1  2  1  0
  2  3  1  0
  3  4  2  0
  4  5  1  0
  5  6  2  0
  6  7  1  0
  7  8  2  0
  8  9  1  0
  9 10  2  0
  9 11  1  0
 11 12  1  0
 12 13  2  0
 13 14  1  0
 14 15  2  0
 15 16  1  0
 15 17  1  0
 17 18  2  0
  8  3  1  0
 18 12  1  0
M  END
>  <submitter_email>  (63) 
None

>  <original ID>  (63) 
LXNXWBLKTWRVII-UHFFFAOYSA-N

>  <ref_url>  (63) 
None

>  <ref_mols>  (63) 
cx0935a,c0935a,c1118a,c1118g

>  <alias>  (63) 
None

>  <inchikey>  (63) 
LXNXWBLKTWRVII-UHFFFAOYSA-N

>  <HIPPO ID>  (63) 
6287

>  <ref_pdb>  (63) 
c0270a

>  <generation_date>  (63) 
None

>  <submitter_name>  (63) 
None

>  <method>  (63) 
None

>  <tags>  (63) 
['Syndirella base']

>  <original SMILES>  (63) 
COc1ccccc1C(=O)Nc1ccc(O)cc1

$$$$
YHGCJJWAPVTIRQ-RVBZMBCESA-N
     RDKit          3D

 21 23  0  0  0  0  0  0  0  0999 V2000
   18.6012    4.2540   11.5955 O   0  0  0  0  0  0  0  0  0  0  0  0
   17.6348    3.8864   12.2564 C   0  0  0  0  0  0  0  0  0  0  0  0
   17.6804    3.6018   13.7471 C   0  0  0  0  0  0  0  0  0  0  0  0
   16.6490    4.4290   14.5291 C   0  0  0  0  0  0  0  0  0  0  0  0
   15.6191    5.0832   13.5919 C   0  0  2  0  0  0  0  0  0  0  0  0
   14.4841    5.7160   14.2507 N   0  0  0  0  0  0  0  0  0  0  0  0
   14.7544    6.6345   15.2614 C   0  0  0  0  0  0  0  0  0  0  0  0
   14.5749    6.3296   16.4361 O   0  0  0  0  0  0  0  0  0  0  0  0
   15.2632    8.0151   14.7870 C   0  0  2  0  0  0  0  0  0  0  0  0
   16.1379    8.6740   15.8286 C   0  0  0  0  0  0  0  0  0  0  0  0
   16.3529   10.3299   15.1343 S   0  0  0  0  0  0  0  0  0  0  0  0
   14.8121   10.2743   14.1028 C   0  0  1  0  0  0  0  0  0  0  0  0
   14.0924   11.5464   14.4990 C   0  0  0  0  0  0  0  0  0  0  0  0
   14.6057   12.8085   13.8345 C   0  0  0  0  0  0  0  0  0  0  0  0
   14.4956   12.6860   12.4035 N   0  0  0  0  0  0  0  0  0  0  0  0
   14.5916   11.4982   11.7535 C   0  0  0  0  0  0  0  0  0  0  0  0
   14.4837   11.4339   10.5311 O   0  0  0  0  0  0  0  0  0  0  0  0
   14.9987   10.2924   12.5786 C   0  0  0  0  0  0  0  0  0  0  0  0
   14.1643    8.9941   14.5379 N   0  0  0  0  0  0  0  0  0  0  0  0
   15.2250    4.0408   12.5302 C   0  0  0  0  0  0  0  0  0  0  0  0
   16.3833    3.8107   11.6920 N   0  0  0  0  0  0  0  0  0  0  0  0
  1  2  2  0
  2  3  1  0
  3  4  1  0
  4  5  1  0
  5  6  1  1
  6  7  1  0
  7  8  2  0
  9  7  1  1
  9 10  1  0
 10 11  1  0
 12 11  1  0
 12 13  1  1
 13 14  1  0
 14 15  1  0
 15 16  1  0
 16 17  2  0
 16 18  1  0
 12 19  1  0
  5 20  1  0
 20 21  1  0
 21  2  1  0
 19  9  1  0
 18 12  1  0
M  END
>  <submitter_email>  (64) 
None

>  <original ID>  (64) 
YHGCJJWAPVTIRQ-RVBZMBCESA-N

>  <ref_url>  (64) 
None

>  <ref_mols>  (64) 
c0300a,c1076a

>  <alias>  (64) 
None

>  <inchikey>  (64) 
YHGCJJWAPVTIRQ-RVBZMBCESA-N

>  <HIPPO ID>  (64) 
6288

>  <ref_pdb>  (64) 
c0300a

>  <generation_date>  (64) 
None

>  <submitter_name>  (64) 
None

>  <method>  (64) 
None

>  <tags>  (64) 
['Syndirella base']

>  <original SMILES>  (64) 
O=C1CC[C@H](NC(=O)[C@@H]2CS[C@]3(CCNC(=O)C3)N2)CN1

$$$$
YHGCJJWAPVTIRQ-ZDMBXUJBSA-N
     RDKit          3D

 21 23  0  0  0  0  0  0  0  0999 V2000
   18.5051    4.4039   11.6689 O   0  0  0  0  0  0  0  0  0  0  0  0
   17.5836    4.1339   12.4411 C   0  0  0  0  0  0  0  0  0  0  0  0
   17.7849    4.1103   13.9466 C   0  0  0  0  0  0  0  0  0  0  0  0
   16.5484    3.8023   14.7943 C   0  0  0  0  0  0  0  0  0  0  0  0
   15.2540    4.2882   14.1373 C   0  0  1  0  0  0  0  0  0  0  0  0
   15.2690    5.7425   13.9659 N   0  0  0  0  0  0  0  0  0  0  0  0
   14.8885    6.6685   14.9177 C   0  0  0  0  0  0  0  0  0  0  0  0
   14.3480    6.3694   15.9775 O   0  0  0  0  0  0  0  0  0  0  0  0
   15.2852    8.1036   14.5226 C   0  0  2  0  0  0  0  0  0  0  0  0
   16.2853    8.6589   15.5147 C   0  0  0  0  0  0  0  0  0  0  0  0
   16.3175   10.4192   15.0967 S   0  0  0  0  0  0  0  0  0  0  0  0
   14.7822   10.3790   14.0578 C   0  0  1  0  0  0  0  0  0  0  0  0
   14.0641   11.6558   14.4408 C   0  0  0  0  0  0  0  0  0  0  0  0
   14.6067   12.9053   13.7781 C   0  0  0  0  0  0  0  0  0  0  0  0
   14.5176   12.7778   12.3465 N   0  0  0  0  0  0  0  0  0  0  0  0
   14.5974   11.5845   11.7012 C   0  0  0  0  0  0  0  0  0  0  0  0
   14.5055   11.5227   10.4772 O   0  0  0  0  0  0  0  0  0  0  0  0
   14.9656   10.3729   12.5322 C   0  0  0  0  0  0  0  0  0  0  0  0
   14.1532    9.0859   14.4786 N   0  0  0  0  0  0  0  0  0  0  0  0
   15.1819    3.6129   12.7639 C   0  0  0  0  0  0  0  0  0  0  0  0
   16.3207    3.9914   11.9487 N   0  0  0  0  0  0  0  0  0  0  0  0
  1  2  2  0
  2  3  1  0
  3  4  1  0
  4  5  1  0
  5  6  1  6
  6  7  1  0
  7  8  2  0
  9  7  1  1
  9 10  1  0
 10 11  1  0
 12 11  1  0
 12 13  1  6
 13 14  1  0
 14 15  1  0
 15 16  1  0
 16 17  2  0
 16 18  1  0
 12 19  1  0
  5 20  1  0
 20 21  1  0
 21  2  1  0
 19  9  1  0
 18 12  1  0
M  END
>  <submitter_email>  (65) 
None

>  <original ID>  (65) 
YHGCJJWAPVTIRQ-ZDMBXUJBSA-N

>  <ref_url>  (65) 
None

>  <ref_mols>  (65) 
c0300a,c1076a

>  <alias>  (65) 
None

>  <inchikey>  (65) 
YHGCJJWAPVTIRQ-ZDMBXUJBSA-N

>  <HIPPO ID>  (65) 
6289

>  <ref_pdb>  (65) 
c0300a

>  <generation_date>  (65) 
None

>  <submitter_name>  (65) 
None

>  <method>  (65) 
None

>  <tags>  (65) 
['Syndirella base']

>  <original SMILES>  (65) 
O=C1CC[C@@H](NC(=O)[C@@H]2CS[C@]3(CCNC(=O)C3)N2)CN1

$$$$
YHGCJJWAPVTIRQ-RWEMILLDSA-N
     RDKit          3D

 21 23  0  0  0  0  0  0  0  0999 V2000
   18.5018    3.9002   11.4826 O   0  0  0  0  0  0  0  0  0  0  0  0
   17.5783    3.6205   12.2406 C   0  0  0  0  0  0  0  0  0  0  0  0
   17.7573    3.2586   13.7039 C   0  0  0  0  0  0  0  0  0  0  0  0
   17.2133    4.3826   14.5932 C   0  0  0  0  0  0  0  0  0  0  0  0
   16.3170    5.3152   13.7700 C   0  0  2  0  0  0  0  0  0  0  0  0
   15.7480    6.4129   14.4998 N   0  0  0  0  0  0  0  0  0  0  0  0
   14.7540    6.3623   15.4317 C   0  0  0  0  0  0  0  0  0  0  0  0
   14.1192    5.3462   15.6874 O   0  0  0  0  0  0  0  0  0  0  0  0
   14.4366    7.7201   16.1083 C   0  0  1  0  0  0  0  0  0  0  0  0
   15.6417    8.3637   16.7670 C   0  0  0  0  0  0  0  0  0  0  0  0
   16.4053    9.3220   15.4426 S   0  0  0  0  0  0  0  0  0  0  0  0
   14.8139    9.6070   14.5622 C   0  0  1  0  0  0  0  0  0  0  0  0
   14.4003   11.0392   14.8840 C   0  0  0  0  0  0  0  0  0  0  0  0
   15.1123   12.0782   14.0669 C   0  0  0  0  0  0  0  0  0  0  0  0
   14.9265   11.8064   12.6676 N   0  0  0  0  0  0  0  0  0  0  0  0
   14.9154   10.5590   12.1282 C   0  0  0  0  0  0  0  0  0  0  0  0
   14.8805   10.4450   10.9046 O   0  0  0  0  0  0  0  0  0  0  0  0
   14.9434    9.3528   13.0615 C   0  0  0  0  0  0  0  0  0  0  0  0
   13.8209    8.6812   15.1599 N   0  0  0  0  0  0  0  0  0  0  0  0
   15.4015    4.4682   12.8687 C   0  0  0  0  0  0  0  0  0  0  0  0
   16.2589    3.8291   11.8741 N   0  0  0  0  0  0  0  0  0  0  0  0
  1  2  2  0
  2  3  1  0
  3  4  1  0
  4  5  1  0
  5  6  1  1
  6  7  1  0
  7  8  2  0
  9  7  1  6
  9 10  1  0
 10 11  1  0
 12 11  1  0
 12 13  1  6
 13 14  1  0
 14 15  1  0
 15 16  1  0
 16 17  2  0
 16 18  1  0
 12 19  1  0
  5 20  1  0
 20 21  1  0
 21  2  1  0
 19  9  1  0
 18 12  1  0
M  END
>  <submitter_email>  (66) 
None

>  <original ID>  (66) 
YHGCJJWAPVTIRQ-RWEMILLDSA-N

>  <ref_url>  (66) 
None

>  <ref_mols>  (66) 
c0300a,c1076a

>  <alias>  (66) 
None

>  <inchikey>  (66) 
YHGCJJWAPVTIRQ-RWEMILLDSA-N

>  <HIPPO ID>  (66) 
6290

>  <ref_pdb>  (66) 
c0300a

>  <generation_date>  (66) 
None

>  <submitter_name>  (66) 
None

>  <method>  (66) 
None

>  <tags>  (66) 
['Syndirella base']

>  <original SMILES>  (66) 
O=C1CC[C@H](NC(=O)[C@H]2CS[C@]3(CCNC(=O)C3)N2)CN1

$$$$
YHGCJJWAPVTIRQ-KKFJDGPESA-N
     RDKit          3D

 21 23  0  0  0  0  0  0  0  0999 V2000
   18.5283    4.4355   11.6378 O   0  0  0  0  0  0  0  0  0  0  0  0
   17.5803    4.2085   12.3909 C   0  0  0  0  0  0  0  0  0  0  0  0
   17.7654    4.0685   13.8892 C   0  0  0  0  0  0  0  0  0  0  0  0
   16.5422    3.5834   14.6617 C   0  0  0  0  0  0  0  0  0  0  0  0
   15.2436    4.1709   14.1057 C   0  0  1  0  0  0  0  0  0  0  0  0
   15.2007    5.6253   14.2704 N   0  0  0  0  0  0  0  0  0  0  0  0
   14.7358    6.2424   15.4089 C   0  0  0  0  0  0  0  0  0  0  0  0
   14.2543    5.6293   16.3582 O   0  0  0  0  0  0  0  0  0  0  0  0
   14.8913    7.7706   15.4433 C   0  0  1  0  0  0  0  0  0  0  0  0
   16.3316    8.1215   15.7467 C   0  0  0  0  0  0  0  0  0  0  0  0
   16.5458    9.7818   15.0798 S   0  0  0  0  0  0  0  0  0  0  0  0
   15.0059    9.7637   14.0628 C   0  0  1  0  0  0  0  0  0  0  0  0
   14.1708   10.7794   14.8003 C   0  0  0  0  0  0  0  0  0  0  0  0
   14.4191   12.2154   14.3407 C   0  0  0  0  0  0  0  0  0  0  0  0
   14.1179   12.3514   12.9443 N   0  0  0  0  0  0  0  0  0  0  0  0
   14.4703   11.4111   12.0361 C   0  0  0  0  0  0  0  0  0  0  0  0
   14.4025   11.6205   10.8274 O   0  0  0  0  0  0  0  0  0  0  0  0
   15.0846   10.1485   12.5806 C   0  0  0  0  0  0  0  0  0  0  0  0
   14.5477    8.3592   14.1346 N   0  0  0  0  0  0  0  0  0  0  0  0
   15.1590    3.7801   12.6293 C   0  0  0  0  0  0  0  0  0  0  0  0
   16.3129    4.2427   11.8883 N   0  0  0  0  0  0  0  0  0  0  0  0
  1  2  2  0
  2  3  1  0
  3  4  1  0
  4  5  1  0
  5  6  1  6
  6  7  1  0
  7  8  2  0
  9  7  1  6
  9 10  1  0
 10 11  1  0
 12 11  1  0
 12 13  1  1
 13 14  1  0
 14 15  1  0
 15 16  1  0
 16 17  2  0
 16 18  1  0
 12 19  1  0
  5 20  1  0
 20 21  1  0
 21  2  1  0
 19  9  1  0
 18 12  1  0
M  END
>  <submitter_email>  (67) 
None

>  <original ID>  (67) 
YHGCJJWAPVTIRQ-KKFJDGPESA-N

>  <ref_url>  (67) 
None

>  <ref_mols>  (67) 
c0300a,c1076a

>  <alias>  (67) 
None

>  <inchikey>  (67) 
YHGCJJWAPVTIRQ-KKFJDGPESA-N

>  <HIPPO ID>  (67) 
6291

>  <ref_pdb>  (67) 
c0300a

>  <generation_date>  (67) 
None

>  <submitter_name>  (67) 
None

>  <method>  (67) 
None

>  <tags>  (67) 
['Syndirella base']

>  <original SMILES>  (67) 
O=C1CC[C@@H](NC(=O)[C@H]2CS[C@]3(CCNC(=O)C3)N2)CN1

$$$$
YHGCJJWAPVTIRQ-MWODSPESSA-N
     RDKit          3D

 21 23  0  0  0  0  0  0  0  0999 V2000
   18.6495    4.1560   11.4902 O   0  0  0  0  0  0  0  0  0  0  0  0
   17.6761    3.7631   12.1251 C   0  0  0  0  0  0  0  0  0  0  0  0
   17.7291    3.2949   13.5659 C   0  0  0  0  0  0  0  0  0  0  0  0
   16.8541    4.1683   14.4683 C   0  0  0  0  0  0  0  0  0  0  0  0
   15.9221    5.0680   13.6356 C   0  0  2  0  0  0  0  0  0  0  0  0
   14.9490    5.8676   14.3504 N   0  0  0  0  0  0  0  0  0  0  0  0
   15.3174    6.3578   15.5843 C   0  0  0  0  0  0  0  0  0  0  0  0
   15.3885    5.6138   16.5607 O   0  0  0  0  0  0  0  0  0  0  0  0
   15.5312    7.8756   15.7300 C   0  0  2  0  0  0  0  0  0  0  0  0
   14.2755    8.4415   16.3581 C   0  0  0  0  0  0  0  0  0  0  0  0
   13.4491    9.1142   14.9229 S   0  0  0  0  0  0  0  0  0  0  0  0
   14.9908    9.7175   14.1847 C   0  0  2  0  0  0  0  0  0  0  0  0
   15.5075   11.0037   14.8594 C   0  0  0  0  0  0  0  0  0  0  0  0
   14.6954   12.2339   14.4648 C   0  0  0  0  0  0  0  0  0  0  0  0
   14.5248   12.3736   13.0439 N   0  0  0  0  0  0  0  0  0  0  0  0
   14.4701   11.3377   12.1711 C   0  0  0  0  0  0  0  0  0  0  0  0
   14.2976   11.5454   10.9711 O   0  0  0  0  0  0  0  0  0  0  0  0
   14.8729    9.9787   12.6819 C   0  0  0  0  0  0  0  0  0  0  0  0
   15.8992    8.5778   14.4568 N   0  0  0  0  0  0  0  0  0  0  0  0
   15.3275    4.2113   12.5046 C   0  0  0  0  0  0  0  0  0  0  0  0
   16.4057    3.8633   11.5996 N   0  0  0  0  0  0  0  0  0  0  0  0
  1  2  2  0
  2  3  1  0
  3  4  1  0
  4  5  1  0
  5  6  1  1
  6  7  1  0
  7  8  2  0
  9  7  1  6
  9 10  1  0
 10 11  1  0
 12 11  1  0
 12 13  1  1
 13 14  1  0
 14 15  1  0
 15 16  1  0
 16 17  2  0
 16 18  1  0
 12 19  1  0
  5 20  1  0
 20 21  1  0
 21  2  1  0
 19  9  1  0
 18 12  1  0
M  END
>  <submitter_email>  (68) 
None

>  <original ID>  (68) 
YHGCJJWAPVTIRQ-MWODSPESSA-N

>  <ref_url>  (68) 
None

>  <ref_mols>  (68) 
c0300a,c1076a

>  <alias>  (68) 
None

>  <inchikey>  (68) 
YHGCJJWAPVTIRQ-MWODSPESSA-N

>  <HIPPO ID>  (68) 
6292

>  <ref_pdb>  (68) 
c0300a

>  <generation_date>  (68) 
None

>  <submitter_name>  (68) 
None

>  <method>  (68) 
None

>  <tags>  (68) 
['Syndirella base']

>  <original SMILES>  (68) 
O=C1CC[C@H](NC(=O)[C@@H]2CS[C@@]3(CCNC(=O)C3)N2)CN1

$$$$
YHGCJJWAPVTIRQ-VYUIOLGVSA-N
     RDKit          3D

 21 23  0  0  0  0  0  0  0  0999 V2000
   18.6055    4.3849   11.5789 O   0  0  0  0  0  0  0  0  0  0  0  0
   17.6466    4.1121   12.3018 C   0  0  0  0  0  0  0  0  0  0  0  0
   17.8291    3.7182   13.7549 C   0  0  0  0  0  0  0  0  0  0  0  0
   16.5591    3.2956   14.4873 C   0  0  0  0  0  0  0  0  0  0  0  0
   15.3476    4.1131   14.0359 C   0  0  1  0  0  0  0  0  0  0  0  0
   15.5242    5.5269   14.3721 N   0  0  0  0  0  0  0  0  0  0  0  0
   15.0906    6.0570   15.5602 C   0  0  0  0  0  0  0  0  0  0  0  0
   14.3816    5.4288   16.3447 O   0  0  0  0  0  0  0  0  0  0  0  0
   15.6205    7.4655   15.9015 C   0  0  2  0  0  0  0  0  0  0  0  0
   14.5490    8.2572   16.6256 C   0  0  0  0  0  0  0  0  0  0  0  0
   13.6335    8.9373   15.2418 S   0  0  0  0  0  0  0  0  0  0  0  0
   15.1487    9.2437   14.2735 C   0  0  2  0  0  0  0  0  0  0  0  0
   15.6154   10.6720   14.6357 C   0  0  0  0  0  0  0  0  0  0  0  0
   14.7813   11.7211   13.9172 C   0  0  0  0  0  0  0  0  0  0  0  0
   14.8600   11.5189   12.4993 N   0  0  0  0  0  0  0  0  0  0  0  0
   14.8333   10.2912   11.9085 C   0  0  0  0  0  0  0  0  0  0  0  0
   14.8024   10.2436   10.6798 O   0  0  0  0  0  0  0  0  0  0  0  0
   14.8684    9.0366   12.7857 C   0  0  0  0  0  0  0  0  0  0  0  0
   16.1214    8.2106   14.7117 N   0  0  0  0  0  0  0  0  0  0  0  0
   15.1928    3.9124   12.5301 C   0  0  0  0  0  0  0  0  0  0  0  0
   16.3875    4.3163   11.8232 N   0  0  0  0  0  0  0  0  0  0  0  0
  1  2  2  0
  2  3  1  0
  3  4  1  0
  4  5  1  0
  5  6  1  6
  6  7  1  0
  7  8  2  0
  9  7  1  6
  9 10  1  0
 10 11  1  0
 12 11  1  0
 12 13  1  6
 13 14  1  0
 14 15  1  0
 15 16  1  0
 16 17  2  0
 16 18  1  0
 12 19  1  0
  5 20  1  0
 20 21  1  0
 21  2  1  0
 19  9  1  0
 18 12  1  0
M  END
>  <submitter_email>  (69) 
None

>  <original ID>  (69) 
YHGCJJWAPVTIRQ-VYUIOLGVSA-N

>  <ref_url>  (69) 
None

>  <ref_mols>  (69) 
c0300a,c1076a

>  <alias>  (69) 
None

>  <inchikey>  (69) 
YHGCJJWAPVTIRQ-VYUIOLGVSA-N

>  <HIPPO ID>  (69) 
6293

>  <ref_pdb>  (69) 
c0300a

>  <generation_date>  (69) 
None

>  <submitter_name>  (69) 
None

>  <method>  (69) 
None

>  <tags>  (69) 
['Syndirella base']

>  <original SMILES>  (69) 
O=C1CC[C@@H](NC(=O)[C@@H]2CS[C@@]3(CCNC(=O)C3)N2)CN1

$$$$
YHGCJJWAPVTIRQ-IGJMFERPSA-N
     RDKit          3D

 21 23  0  0  0  0  0  0  0  0999 V2000
   18.7126    4.1946   11.3772 O   0  0  0  0  0  0  0  0  0  0  0  0
   17.8629    3.7866   12.1662 C   0  0  0  0  0  0  0  0  0  0  0  0
   18.2322    3.3765   13.5838 C   0  0  0  0  0  0  0  0  0  0  0  0
   17.0903    3.4012   14.5809 C   0  0  0  0  0  0  0  0  0  0  0  0
   16.0851    4.4347   14.0951 C   0  0  2  0  0  0  0  0  0  0  0  0
   15.1336    4.7789   15.1093 N   0  0  0  0  0  0  0  0  0  0  0  0
   15.0170    6.0855   15.5209 C   0  0  0  0  0  0  0  0  0  0  0  0
   14.8855    6.2980   16.7237 O   0  0  0  0  0  0  0  0  0  0  0  0
   14.8489    7.1560   14.4264 C   0  0  1  0  0  0  0  0  0  0  0  0
   13.3911    7.5602   14.5612 C   0  0  0  0  0  0  0  0  0  0  0  0
   13.4832    9.2512   15.1041 S   0  0  0  0  0  0  0  0  0  0  0  0
   15.0535    9.5800   14.2988 C   0  0  2  0  0  0  0  0  0  0  0  0
   15.7256   10.7947   14.9546 C   0  0  0  0  0  0  0  0  0  0  0  0
   14.9746   12.0945   14.6449 C   0  0  0  0  0  0  0  0  0  0  0  0
   14.6910   12.2730   13.2422 N   0  0  0  0  0  0  0  0  0  0  0  0
   14.5299   11.2637   12.3505 C   0  0  0  0  0  0  0  0  0  0  0  0
   14.3090   11.5141   11.1665 O   0  0  0  0  0  0  0  0  0  0  0  0
   14.8816    9.8710   12.8075 C   0  0  0  0  0  0  0  0  0  0  0  0
   15.7652    8.3178   14.5811 N   0  0  0  0  0  0  0  0  0  0  0  0
   15.4897    3.8817   12.7988 C   0  0  0  0  0  0  0  0  0  0  0  0
   16.5428    3.8083   11.8099 N   0  0  0  0  0  0  0  0  0  0  0  0
  1  2  2  0
  2  3  1  0
  3  4  1  0
  4  5  1  0
  5  6  1  1
  6  7  1  0
  7  8  2  0
  9  7  1  1
  9 10  1  0
 10 11  1  0
 12 11  1  0
 12 13  1  1
 13 14  1  0
 14 15  1  0
 15 16  1  0
 16 17  2  0
 16 18  1  0
 12 19  1  0
  5 20  1  0
 20 21  1  0
 21  2  1  0
 19  9  1  0
 18 12  1  0
M  END
>  <submitter_email>  (70) 
None

>  <original ID>  (70) 
YHGCJJWAPVTIRQ-IGJMFERPSA-N

>  <ref_url>  (70) 
None

>  <ref_mols>  (70) 
c0300a,c1076a

>  <alias>  (70) 
None

>  <inchikey>  (70) 
YHGCJJWAPVTIRQ-IGJMFERPSA-N

>  <HIPPO ID>  (70) 
6294

>  <ref_pdb>  (70) 
c0300a

>  <generation_date>  (70) 
None

>  <submitter_name>  (70) 
None

>  <method>  (70) 
None

>  <tags>  (70) 
['Syndirella base']

>  <original SMILES>  (70) 
O=C1CC[C@H](NC(=O)[C@H]2CS[C@@]3(CCNC(=O)C3)N2)CN1

$$$$
YHGCJJWAPVTIRQ-JRKPZEMJSA-N
     RDKit          3D

 21 23  0  0  0  0  0  0  0  0999 V2000
   18.6317    4.3579   11.5200 O   0  0  0  0  0  0  0  0  0  0  0  0
   17.7961    3.9258   12.3145 C   0  0  0  0  0  0  0  0  0  0  0  0
   18.1386    3.6938   13.7749 C   0  0  0  0  0  0  0  0  0  0  0  0
   16.9838    3.3038   14.6878 C   0  0  0  0  0  0  0  0  0  0  0  0
   15.6569    3.8434   14.1759 C   0  0  1  0  0  0  0  0  0  0  0  0
   15.6571    5.3004   14.1199 N   0  0  0  0  0  0  0  0  0  0  0  0
   15.2388    6.0631   15.1778 C   0  0  0  0  0  0  0  0  0  0  0  0
   15.0770    5.6131   16.3074 O   0  0  0  0  0  0  0  0  0  0  0  0
   14.7816    7.4412   14.7460 C   0  0  1  0  0  0  0  0  0  0  0  0
   14.0347    8.0618   15.8895 C   0  0  0  0  0  0  0  0  0  0  0  0
   13.6411    9.5893   15.0914 S   0  0  0  0  0  0  0  0  0  0  0  0
   15.1803    9.7382   14.1661 C   0  0  2  0  0  0  0  0  0  0  0  0
   15.9192   10.9302   14.7972 C   0  0  0  0  0  0  0  0  0  0  0  0
   15.1694   12.2513   14.5501 C   0  0  0  0  0  0  0  0  0  0  0  0
   14.7566   12.4341   13.1769 N   0  0  0  0  0  0  0  0  0  0  0  0
   14.5131   11.4352   12.2904 C   0  0  0  0  0  0  0  0  0  0  0  0
   14.1850   11.6959   11.1344 O   0  0  0  0  0  0  0  0  0  0  0  0
   14.9072   10.0405   12.6924 C   0  0  0  0  0  0  0  0  0  0  0  0
   15.8437    8.4147   14.3660 N   0  0  0  0  0  0  0  0  0  0  0  0
   15.4462    3.3073   12.7644 C   0  0  0  0  0  0  0  0  0  0  0  0
   16.5101    3.7623   11.8959 N   0  0  0  0  0  0  0  0  0  0  0  0
  1  2  2  0
  2  3  1  0
  3  4  1  0
  4  5  1  0
  5  6  1  6
  6  7  1  0
  7  8  2  0
  9  7  1  1
  9 10  1  0
 10 11  1  0
 12 11  1  0
 12 13  1  1
 13 14  1  0
 14 15  1  0
 15 16  1  0
 16 17  2  0
 16 18  1  0
 12 19  1  0
  5 20  1  0
 20 21  1  0
 21  2  1  0
 19  9  1  0
 18 12  1  0
M  END
>  <submitter_email>  (71) 
None

>  <original ID>  (71) 
YHGCJJWAPVTIRQ-JRKPZEMJSA-N

>  <ref_url>  (71) 
None

>  <ref_mols>  (71) 
c0300a,c1076a

>  <alias>  (71) 
None

>  <inchikey>  (71) 
YHGCJJWAPVTIRQ-JRKPZEMJSA-N

>  <HIPPO ID>  (71) 
6295

>  <ref_pdb>  (71) 
c0300a

>  <generation_date>  (71) 
None

>  <submitter_name>  (71) 
None

>  <method>  (71) 
None

>  <tags>  (71) 
['Syndirella base']

>  <original SMILES>  (71) 
O=C1CC[C@@H](NC(=O)[C@H]2CS[C@@]3(CCNC(=O)C3)N2)CN1

$$$$
OHSGHNZPVAYZHL-UHFFFAOYSA-N
     RDKit          3D

 20 22  0  0  0  0  0  0  0  0999 V2000
   14.6976    3.7515   14.6155 C   0  0  0  0  0  0  0  0  0  0  0  0
   15.9524    3.7343   13.8302 C   0  0  0  0  0  0  0  0  0  0  0  0
   16.9112    2.7697   14.0912 N   0  0  0  0  0  0  0  0  0  0  0  0
   17.9436    3.0135   13.2048 N   0  0  0  0  0  0  0  0  0  0  0  0
   17.6422    4.1108   12.4329 C   0  0  0  0  0  0  0  0  0  0  0  0
   18.3396    4.6247   11.5752 O   0  0  0  0  0  0  0  0  0  0  0  0
   16.3125    4.5955   12.8652 C   0  0  0  0  0  0  0  0  0  0  0  0
   15.6675    5.8457   12.4050 C   0  0  0  0  0  0  0  0  0  0  0  0
   14.9721    5.8161   11.0573 C   0  0  0  0  0  0  0  0  0  0  0  0
   14.6915    4.7770   10.4588 O   0  0  0  0  0  0  0  0  0  0  0  0
   14.6889    7.0172   10.4388 N   0  0  0  0  0  0  0  0  0  0  0  0
   14.7228    8.3855   10.8212 C   0  0  0  0  0  0  0  0  0  0  0  0
   14.6415    9.3530    9.8041 C   0  0  0  0  0  0  0  0  0  0  0  0
   14.5513   10.7077    9.9488 N   0  0  0  0  0  0  0  0  0  0  0  0
   14.5332   11.0888   11.2368 C   0  0  0  0  0  0  0  0  0  0  0  0
   14.3373   12.3755   11.6701 N   0  0  0  0  0  0  0  0  0  0  0  0
   14.3812   12.4018   13.0427 C   0  0  0  0  0  0  0  0  0  0  0  0
   14.5940   11.1140   13.4900 C   0  0  0  0  0  0  0  0  0  0  0  0
   14.6534   10.2652   12.3511 C   0  0  0  0  0  0  0  0  0  0  0  0
   14.7561    8.8677   12.1337 C   0  0  0  0  0  0  0  0  0  0  0  0
  1  2  1  0
  2  3  1  0
  3  4  1  0
  4  5  1  0
  5  6  2  0
  5  7  1  0
  7  8  1  0
  8  9  1  0
  9 10  2  0
  9 11  1  0
 11 12  1  0
 12 13  2  0
 13 14  1  0
 14 15  2  0
 15 16  1  0
 16 17  1  0
 17 18  2  0
 18 19  1  0
 19 20  2  0
  7  2  2  0
 20 12  1  0
 19 15  1  0
M  END
>  <submitter_email>  (72) 
None

>  <original ID>  (72) 
OHSGHNZPVAYZHL-UHFFFAOYSA-N

>  <ref_url>  (72) 
None

>  <ref_mols>  (72) 
cx0317a,c0317a,c1402a

>  <alias>  (72) 
None

>  <inchikey>  (72) 
OHSGHNZPVAYZHL-UHFFFAOYSA-N

>  <HIPPO ID>  (72) 
6296

>  <ref_pdb>  (72) 
c1454a

>  <generation_date>  (72) 
None

>  <submitter_name>  (72) 
None

>  <method>  (72) 
None

>  <tags>  (72) 
['Syndirella base']

>  <original SMILES>  (72) 
Cc1[nH][nH]c(=O)c1CC(=O)Nc1cnc2[nH]ccc2c1

$$$$
WXVLITNXXROEMR-UHFFFAOYSA-N
     RDKit          3D

 22 24  0  0  0  0  0  0  0  0999 V2000
   13.7778    8.8513    8.9663 C   0  0  0  0  0  0  0  0  0  0  0  0
   14.6194    8.2823   10.0818 C   0  0  0  0  0  0  0  0  0  0  0  0
   14.4339    6.8461   10.3992 C   0  0  0  0  0  0  0  0  0  0  0  0
   15.2393    6.1041   11.1185 N   0  0  0  0  0  0  0  0  0  0  0  0
   14.6572    4.8692   11.0724 C   0  0  0  0  0  0  0  0  0  0  0  0
   15.1902    3.8184   11.7929 N   0  0  0  0  0  0  0  0  0  0  0  0
   16.4342    3.9629   12.3719 C   0  0  0  0  0  0  0  0  0  0  0  0
   17.3439    4.6301   11.8784 O   0  0  0  0  0  0  0  0  0  0  0  0
   16.7302    3.3434   13.6835 C   0  0  0  0  0  0  0  0  0  0  0  0
   17.7780    3.8876   14.4250 C   0  0  0  0  0  0  0  0  0  0  0  0
   18.0524    3.3451   15.6617 C   0  0  0  0  0  0  0  0  0  0  0  0
   17.3807    2.3053   16.1913 N   0  0  0  0  0  0  0  0  0  0  0  0
   16.3935    1.7605   15.4742 C   0  0  0  0  0  0  0  0  0  0  0  0
   15.7662    0.6009   15.8912 N   0  0  0  0  0  0  0  0  0  0  0  0
   15.8909   -0.0425   17.1901 C   0  0  0  0  0  0  0  0  0  0  0  0
   17.2639   -0.5864   17.5667 C   0  0  0  0  0  0  0  0  0  0  0  0
   17.1248   -0.6913   19.0584 C   0  0  0  0  0  0  0  0  0  0  0  0
   16.1028    0.0478   19.5128 C   0  0  0  0  0  0  0  0  0  0  0  0
   15.3977    0.7588   18.3951 C   0  0  0  0  0  0  0  0  0  0  0  0
   16.0240    2.2818   14.2271 C   0  0  0  0  0  0  0  0  0  0  0  0
   13.5001    4.8352   10.3995 N   0  0  0  0  0  0  0  0  0  0  0  0
   13.3571    6.1548    9.9279 O   0  0  0  0  0  0  0  0  0  0  0  0
  1  2  1  0
  2  3  1  0
  3  4  2  0
  4  5  1  0
  5  6  1  0
  6  7  1  0
  7  8  2  0
  7  9  1  0
  9 10  2  0
 10 11  1  0
 11 12  2  0
 12 13  1  0
 13 14  1  0
 14 15  1  0
 15 16  1  0
 16 17  1  0
 17 18  2  0
 18 19  1  0
 13 20  2  0
  5 21  2  0
 21 22  1  0
 22  3  1  0
 20  9  1  0
 19 15  1  0
M  END
>  <submitter_email>  (73) 
None

>  <original ID>  (73) 
WXVLITNXXROEMR-UHFFFAOYSA-N

>  <ref_url>  (73) 
None

>  <ref_mols>  (73) 
c0316a,c0441a

>  <alias>  (73) 
None

>  <inchikey>  (73) 
WXVLITNXXROEMR-UHFFFAOYSA-N

>  <HIPPO ID>  (73) 
6297

>  <ref_pdb>  (73) 
c0300a

>  <generation_date>  (73) 
None

>  <submitter_name>  (73) 
None

>  <method>  (73) 
None

>  <tags>  (73) 
['Syndirella base']

>  <original SMILES>  (73) 
CCc1nc(NC(=O)c2ccnc(NC3CC=CC3)c2)no1

$$$$
KIULBMGWDSJTMM-UHFFFAOYSA-N
     RDKit          3D

 18 19  0  0  0  0  0  0  0  0999 V2000
   14.7861    0.5261   19.5592 C   0  0  0  0  0  0  0  0  0  0  0  0
   15.7686   -0.4327   18.9547 C   0  0  0  0  0  0  0  0  0  0  0  0
   15.9102   -1.7187   19.4813 C   0  0  0  0  0  0  0  0  0  0  0  0
   16.7524   -2.6241   18.8505 C   0  0  0  0  0  0  0  0  0  0  0  0
   17.4592   -2.3483   17.7340 N   0  0  0  0  0  0  0  0  0  0  0  0
   17.3092   -1.0941   17.2426 C   0  0  0  0  0  0  0  0  0  0  0  0
   16.5115   -0.1047   17.8207 C   0  0  0  0  0  0  0  0  0  0  0  0
   16.5145    1.2190   17.3359 N   0  0  0  0  0  0  0  0  0  0  0  0
   16.3668    1.5014   15.9927 C   0  0  0  0  0  0  0  0  0  0  0  0
   16.0332    0.6685   15.1676 O   0  0  0  0  0  0  0  0  0  0  0  0
   16.6339    2.9504   15.6736 C   0  0  0  0  0  0  0  0  0  0  0  0
   16.4597    3.3115   14.2261 C   0  0  0  0  0  0  0  0  0  0  0  0
   15.1819    3.4218   13.6861 C   0  0  0  0  0  0  0  0  0  0  0  0
   15.0333    3.8333   12.3638 C   0  0  0  0  0  0  0  0  0  0  0  0
   16.1583    4.1146   11.6126 C   0  0  0  0  0  0  0  0  0  0  0  0
   17.3697    3.9734   12.2420 C   0  0  0  0  0  0  0  0  0  0  0  0
   18.5301    4.1781   11.5824 O   0  0  0  0  0  0  0  0  0  0  0  0
   17.5716    3.6008   13.5119 N   0  0  0  0  0  0  0  0  0  0  0  0
  1  2  1  0
  2  3  2  0
  3  4  1  0
  4  5  2  0
  5  6  1  0
  6  7  2  0
  7  8  1  0
  8  9  1  0
  9 10  2  0
  9 11  1  0
 11 12  1  0
 12 13  2  0
 13 14  1  0
 14 15  2  0
 15 16  1  0
 16 17  1  0
 16 18  2  0
  7  2  1  0
 18 12  1  0
M  END
>  <submitter_email>  (74) 
None

>  <original ID>  (74) 
KIULBMGWDSJTMM-UHFFFAOYSA-N

>  <ref_url>  (74) 
None

>  <ref_mols>  (74) 
cx0305a,cx1118a,c0305a,c1118a

>  <alias>  (74) 
None

>  <inchikey>  (74) 
KIULBMGWDSJTMM-UHFFFAOYSA-N

>  <HIPPO ID>  (74) 
6298

>  <ref_pdb>  (74) 
c0300a

>  <generation_date>  (74) 
None

>  <submitter_name>  (74) 
None

>  <method>  (74) 
None

>  <tags>  (74) 
['Syndirella base']

>  <original SMILES>  (74) 
Cc1ccncc1NC(=O)Cc1cccc(O)n1

$$$$
GLWBHHUWZUOZOL-UHFFFAOYSA-N
     RDKit          3D

 14 14  0  0  0  0  0  0  0  0999 V2000
   21.7740   11.5798   10.4816 C   0  0  0  0  0  0  0  0  0  0  0  0
   20.3598   11.4186   10.4674 O   0  0  0  0  0  0  0  0  0  0  0  0
   19.7176   12.4860   11.1587 C   0  0  0  0  0  0  0  0  0  0  0  0
   18.2430   12.1760   11.3603 C   0  0  0  0  0  0  0  0  0  0  0  0
   17.5522   12.8534   12.1196 O   0  0  0  0  0  0  0  0  0  0  0  0
   17.8068   11.1208   10.5896 N   0  0  0  0  0  0  0  0  0  0  0  0
   16.6384   10.4341   10.8477 C   0  0  0  0  0  0  0  0  0  0  0  0
   16.0687    9.6620    9.8629 C   0  0  0  0  0  0  0  0  0  0  0  0
   14.9812    8.9093   10.2352 C   0  0  0  0  0  0  0  0  0  0  0  0
   13.7807    8.2822    8.9492 Br  0  0  0  0  0  0  0  0  0  0  0  0
   14.6182    8.8072   11.5607 C   0  0  0  0  0  0  0  0  0  0  0  0
   15.1154    9.7563   12.4126 C   0  0  0  0  0  0  0  0  0  0  0  0
   14.5174   10.0829   13.6160 N   0  0  0  0  0  0  0  0  0  0  0  0
   16.1388   10.5247   12.0871 N   0  0  0  0  0  0  0  0  0  0  0  0
  1  2  1  0
  2  3  1  0
  3  4  1  0
  4  5  2  0
  4  6  1  0
  6  7  1  0
  7  8  2  0
  8  9  1  0
  9 10  1  0
  9 11  2  0
 11 12  1  0
 12 13  1  0
 12 14  2  0
 14  7  1  0
M  END
>  <submitter_email>  (75) 
None

>  <original ID>  (75) 
GLWBHHUWZUOZOL-UHFFFAOYSA-N

>  <ref_url>  (75) 
None

>  <ref_mols>  (75) 
cx0692a,c1075a,c0692a

>  <alias>  (75) 
None

>  <inchikey>  (75) 
GLWBHHUWZUOZOL-UHFFFAOYSA-N

>  <HIPPO ID>  (75) 
6299

>  <ref_pdb>  (75) 
c0270a

>  <generation_date>  (75) 
None

>  <submitter_name>  (75) 
None

>  <method>  (75) 
None

>  <tags>  (75) 
['Syndirella base']

>  <original SMILES>  (75) 
COCC(=O)Nc1cc(Br)cc(N)n1

$$$$
XQWKZXHQRAAZAF-UHFFFAOYSA-N
     RDKit          3D

 15 16  0  0  0  0  0  0  0  0999 V2000
   15.8531   10.7781   13.4197 C   0  0  0  0  0  0  0  0  0  0  0  0
   15.6540    9.8185   12.2855 C   0  0  0  0  0  0  0  0  0  0  0  0
   14.9414    8.6309   12.5328 C   0  0  0  0  0  0  0  0  0  0  0  0
   14.5585    7.7896   11.4903 C   0  0  0  0  0  0  0  0  0  0  0  0
   14.8790    8.1291   10.1882 C   0  0  0  0  0  0  0  0  0  0  0  0
   15.6569    9.2545    9.9455 C   0  0  0  0  0  0  0  0  0  0  0  0
   15.9547    9.4836    8.6374 O   0  0  0  0  0  0  0  0  0  0  0  0
   16.0756   10.1137   10.9777 C   0  0  0  0  0  0  0  0  0  0  0  0
   16.7780   11.3038   10.6513 N   0  0  0  0  0  0  0  0  0  0  0  0
   18.0581   11.7177   11.1016 C   0  0  0  0  0  0  0  0  0  0  0  0
   19.2106   11.1276   10.5782 C   0  0  0  0  0  0  0  0  0  0  0  0
   20.4835   11.6079   10.8921 C   0  0  0  0  0  0  0  0  0  0  0  0
   20.6139   12.7068   11.7331 C   0  0  0  0  0  0  0  0  0  0  0  0
   19.4732   13.3211   12.2512 C   0  0  0  0  0  0  0  0  0  0  0  0
   18.2003   12.8304   11.9353 C   0  0  0  0  0  0  0  0  0  0  0  0
  1  2  1  0
  2  3  2  0
  3  4  1  0
  4  5  2  0
  5  6  1  0
  6  7  1  0
  6  8  2  0
  8  9  1  0
  9 10  1  0
 10 11  2  0
 11 12  1  0
 12 13  2  0
 13 14  1  0
 14 15  2  0
  8  2  1  0
 15 10  1  0
M  END
>  <submitter_email>  (76) 
None

>  <original ID>  (76) 
XQWKZXHQRAAZAF-UHFFFAOYSA-N

>  <ref_url>  (76) 
None

>  <ref_mols>  (76) 
cx0692a,c0692a,c1116c,c1116a

>  <alias>  (76) 
None

>  <inchikey>  (76) 
XQWKZXHQRAAZAF-UHFFFAOYSA-N

>  <HIPPO ID>  (76) 
6300

>  <ref_pdb>  (76) 
c0270a

>  <generation_date>  (76) 
None

>  <submitter_name>  (76) 
None

>  <method>  (76) 
None

>  <tags>  (76) 
['Syndirella base']

>  <original SMILES>  (76) 
Cc1cccc(O)c1Nc1ccccc1

$$$$
KKYCNGMNUUPLTM-UHFFFAOYSA-N
     RDKit          3D

 16 16  0  0  0  0  0  0  0  0999 V2000
   15.0291    5.4234   17.0411 C   0  0  0  0  0  0  0  0  0  0  0  0
   15.6293    6.7170   16.7596 N   0  0  0  0  0  0  0  0  0  0  0  0
   16.9023    6.9860   17.4089 C   0  0  0  0  0  0  0  0  0  0  0  0
   14.9124    7.6479   16.0184 C   0  0  0  0  0  0  0  0  0  0  0  0
   13.7036    7.5208   15.8051 O   0  0  0  0  0  0  0  0  0  0  0  0
   15.7170    8.7925   15.3564 C   0  0  0  0  0  0  0  0  0  0  0  0
   15.2436    8.9755   13.9775 N   0  0  0  0  0  0  0  0  0  0  0  0
   15.3075    7.7950   13.2172 C   0  0  0  0  0  0  0  0  0  0  0  0
   14.9467    7.5812   12.0695 O   0  0  0  0  0  0  0  0  0  0  0  0
   14.9310   10.2229   13.4046 C   0  0  0  0  0  0  0  0  0  0  0  0
   14.6907   11.4055   14.2256 C   0  0  0  0  0  0  0  0  0  0  0  0
   14.3898   12.5879   13.6640 C   0  0  0  0  0  0  0  0  0  0  0  0
   14.3293   12.7238   12.3018 N   0  0  0  0  0  0  0  0  0  0  0  0
   14.5240   11.6867   11.4355 C   0  0  0  0  0  0  0  0  0  0  0  0
   14.4773   11.7864   10.2166 O   0  0  0  0  0  0  0  0  0  0  0  0
   14.8401   10.3900   12.0687 C   0  0  0  0  0  0  0  0  0  0  0  0
  1  2  1  0
  2  3  1  0
  2  4  1  0
  4  5  2  0
  4  6  1  0
  6  7  1  0
  7  8  1  0
  8  9  2  0
  7 10  1  0
 10 11  1  0
 11 12  2  0
 12 13  1  0
 13 14  1  0
 14 15  2  0
 14 16  1  0
 16 10  2  0
M  END
>  <submitter_email>  (77) 
None

>  <original ID>  (77) 
KKYCNGMNUUPLTM-UHFFFAOYSA-N

>  <ref_url>  (77) 
None

>  <ref_mols>  (77) 
c1076a,c0721a

>  <alias>  (77) 
None

>  <inchikey>  (77) 
KKYCNGMNUUPLTM-UHFFFAOYSA-N

>  <HIPPO ID>  (77) 
6301

>  <ref_pdb>  (77) 
c0300a

>  <generation_date>  (77) 
None

>  <submitter_name>  (77) 
None

>  <method>  (77) 
None

>  <tags>  (77) 
['Syndirella base']

>  <original SMILES>  (77) 
CN(C)C(=O)CN(C=O)c1cc[nH]c(=O)c1

$$$$
ZJENMQHSGLZNHL-UHFFFAOYSA-N
     RDKit          3D

 17 18  0  0  0  0  0  0  0  0999 V2000
   18.9103    1.8969   15.9706 C   0  0  0  0  0  0  0  0  0  0  0  0
   17.4711    1.9003   16.1198 N   0  0  0  0  0  0  0  0  0  0  0  0
   16.7713    3.1317   15.7778 C   0  0  0  0  0  0  0  0  0  0  0  0
   16.6323    3.2873   14.2904 C   0  0  0  0  0  0  0  0  0  0  0  0
   15.4722    3.0621   13.6563 C   0  0  0  0  0  0  0  0  0  0  0  0
   15.3450    3.3354   12.2488 C   0  0  0  0  0  0  0  0  0  0  0  0
   16.3802    3.7946   11.5420 C   0  0  0  0  0  0  0  0  0  0  0  0
   17.6623    4.0389   12.2298 C   0  0  0  0  0  0  0  0  0  0  0  0
   18.6129    4.5168   11.6180 O   0  0  0  0  0  0  0  0  0  0  0  0
   17.7037    3.7752   13.5704 N   0  0  0  0  0  0  0  0  0  0  0  0
   16.7102    0.8752   16.6929 C   0  0  0  0  0  0  0  0  0  0  0  0
   15.5259    1.0679   16.9489 O   0  0  0  0  0  0  0  0  0  0  0  0
   17.2974   -0.4068   17.0753 C   0  0  0  0  0  0  0  0  0  0  0  0
   16.5858   -1.4303   17.7659 C   0  0  0  0  0  0  0  0  0  0  0  0
   17.3421   -2.4959   18.0474 N   0  0  0  0  0  0  0  0  0  0  0  0
   18.5367   -2.1679   17.5547 N   0  0  0  0  0  0  0  0  0  0  0  0
   18.5529   -0.9619   16.9151 C   0  0  0  0  0  0  0  0  0  0  0  0
  1  2  1  0
  2  3  1  0
  3  4  1  0
  4  5  2  0
  5  6  1  0
  6  7  2  0
  7  8  1  0
  8  9  2  0
  8 10  1  0
  2 11  1  0
 11 12  2  0
 11 13  1  0
 13 14  1  0
 14 15  2  0
 15 16  1  0
 16 17  1  0
 10  4  1  0
 17 13  2  0
M  END
>  <submitter_email>  (78) 
None

>  <original ID>  (78) 
ZJENMQHSGLZNHL-UHFFFAOYSA-N

>  <ref_url>  (78) 
None

>  <ref_mols>  (78) 
cx0732a,c0732a,c1135a

>  <alias>  (78) 
None

>  <inchikey>  (78) 
ZJENMQHSGLZNHL-UHFFFAOYSA-N

>  <HIPPO ID>  (78) 
6302

>  <ref_pdb>  (78) 
c0300a

>  <generation_date>  (78) 
None

>  <submitter_name>  (78) 
None

>  <method>  (78) 
None

>  <tags>  (78) 
['Syndirella base']

>  <original SMILES>  (78) 
CN(Cc1cccc(=O)[nH]1)C(=O)c1cn[nH]c1

$$$$
GQXYNJMUNPQGML-UHFFFAOYSA-N
     RDKit          3D

 21 22  0  0  0  0  0  0  0  0999 V2000
   14.7752    0.4929   19.6008 C   0  0  0  0  0  0  0  0  0  0  0  0
   15.7480   -0.4646   18.9794 C   0  0  0  0  0  0  0  0  0  0  0  0
   15.9017   -1.7501   19.5034 C   0  0  0  0  0  0  0  0  0  0  0  0
   16.7404   -2.6514   18.8627 C   0  0  0  0  0  0  0  0  0  0  0  0
   17.4324   -2.3710   17.7385 N   0  0  0  0  0  0  0  0  0  0  0  0
   17.2737   -1.1169   17.2513 C   0  0  0  0  0  0  0  0  0  0  0  0
   16.4803   -0.1305   17.8407 C   0  0  0  0  0  0  0  0  0  0  0  0
   16.4947    1.2005   17.3817 N   0  0  0  0  0  0  0  0  0  0  0  0
   16.4721    1.5272   16.0419 C   0  0  0  0  0  0  0  0  0  0  0  0
   16.1430    0.7408   15.1687 O   0  0  0  0  0  0  0  0  0  0  0  0
   16.9205    2.9593   15.7854 C   0  0  0  0  0  0  0  0  0  0  0  0
   16.8235    3.3235   14.3838 N   0  0  0  0  0  0  0  0  0  0  0  0
   17.9849    3.4684   13.6267 N   0  0  0  0  0  0  0  0  0  0  0  0
   17.6127    4.1148   12.4562 C   0  0  0  0  0  0  0  0  0  0  0  0
   18.3448    4.4261   11.5306 O   0  0  0  0  0  0  0  0  0  0  0  0
   16.1632    4.4247   12.5419 C   0  0  0  0  0  0  0  0  0  0  0  0
   15.3610    5.0822   11.4856 C   0  0  0  0  0  0  0  0  0  0  0  0
   14.8785    4.0798   10.4345 C   0  0  0  0  0  0  0  0  0  0  0  0
   13.5801    4.4460    9.9682 O   0  0  0  0  0  0  0  0  0  0  0  0
   15.7912    3.9719   13.7467 C   0  0  0  0  0  0  0  0  0  0  0  0
   14.4446    4.0705   14.3581 C   0  0  0  0  0  0  0  0  0  0  0  0
  1  2  1  0
  2  3  2  0
  3  4  1  0
  4  5  2  0
  5  6  1  0
  6  7  2  0
  7  8  1  0
  8  9  1  0
  9 10  2  0
  9 11  1  0
 11 12  1  0
 12 13  1  0
 13 14  1  0
 14 15  2  0
 14 16  1  0
 16 17  1  0
 17 18  1  0
 18 19  1  0
 16 20  2  0
 20 21  1  0
  7  2  1  0
 20 12  1  0
M  END
>  <submitter_email>  (79) 
None

>  <original ID>  (79) 
GQXYNJMUNPQGML-UHFFFAOYSA-N

>  <ref_url>  (79) 
None

>  <ref_mols>  (79) 
cx0317a,cx0305a,c0305a,c0317a

>  <alias>  (79) 
None

>  <inchikey>  (79) 
GQXYNJMUNPQGML-UHFFFAOYSA-N

>  <HIPPO ID>  (79) 
6303

>  <ref_pdb>  (79) 
c0300a

>  <generation_date>  (79) 
None

>  <submitter_name>  (79) 
None

>  <method>  (79) 
None

>  <tags>  (79) 
['Syndirella base']

>  <original SMILES>  (79) 
Cc1ccncc1NC(=O)Cn1[nH]c(=O)c(CCO)c1C

$$$$
