ver_1.2
     RDKit          3D

 21 22  0  0  0  0  0  0  0  0999 V2000
    6.8360    1.4721    0.4540 C   0  0  0  0  0  0  0  0  0  0  0  0
    6.3828    1.0855    1.6900 O   0  0  0  0  0  0  0  0  0  0  0  0
    5.0174    1.1402    1.8259 C   0  0  0  0  0  0  0  0  0  0  0  0
    4.3159    0.2530    0.8416 C   0  0  0  0  0  0  0  0  0  0  0  0
    4.5050   -0.5451   -0.0877 O   0  0  0  0  0  0  0  0  0  0  0  0
    2.8920    0.3279    1.0039 N   0  0  0  0  0  0  0  0  0  0  0  0
    1.9968   -0.4210    0.1892 C   0  0  0  0  0  0  0  0  0  0  0  0
    2.3560   -1.2833   -0.8232 C   0  0  0  0  0  0  0  0  0  0  0  0
    1.4285   -1.9731   -1.5681 C   0  0  0  0  0  0  0  0  0  0  0  0
    0.1090   -1.7746   -1.2689 C   0  0  0  0  0  0  0  0  0  0  0  0
   -0.2840   -0.9276   -0.2723 C   0  0  0  0  0  0  0  0  0  0  0  0
   -1.7225   -0.7467    0.0131 C   0  0  0  0  0  0  0  0  0  0  0  0
   -2.0622    0.0526    0.9519 O   0  0  0  0  0  0  0  0  0  0  0  0
   -2.6807   -1.4432   -0.7380 N   0  0  0  0  0  0  0  0  0  0  0  0
   -4.1183   -1.3457   -0.5488 C   0  0  0  0  0  0  0  0  0  0  0  0
   -4.6625    0.0000   -0.7301 C   0  0  0  0  0  0  0  0  0  0  0  0
   -5.1345    0.7308   -1.6413 C   0  0  0  0  0  0  0  0  0  0  0  0
   -5.5567    1.9908   -1.4089 C   0  0  0  0  0  0  0  0  0  0  0  0
   -5.5142    2.5331   -0.2768 C   0  0  0  0  0  0  0  0  0  0  0  0
   -4.7624    1.1144    0.7343 S   0  0  0  0  0  0  0  0  0  0  0  0
    0.6588   -0.2400    0.4692 C   0  0  0  0  0  0  0  0  0  0  0  0
  1  2  1  0
  2  3  1  0
  3  4  1  0
  4  5  2  0
  4  6  1  0
  6  7  1  0
  7  8  2  0
  8  9  1  0
  9 10  2  0
 10 11  1  0
 11 12  1  0
 12 13  2  0
 12 14  1  0
 14 15  1  0
 15 16  1  0
 16 17  2  0
 17 18  1  0
 18 19  2  0
 19 20  1  0
 11 21  2  0
 21  7  1  0
 20 16  1  0
M  END
>  <ref_url>  (1) 
https://hippo.winokan.com

>  <submitter_name>  (1) 
Max Winokan

>  <submitter_email>  (1) 
max.winokan@diamond.ac.uk

>  <submitter_institution>  (1) 
DLS

>  <generation_date>  (1) 
2024-09-26

>  <method>  (1) 
Accessible FFF Scaffolds

>  <exports>  (1) 
exports

>  <smiles>  (1) 
smiles

>  <ref_mols>  (1) 
fragment inspirations

>  <original ID>  (1) 
original ID

$$$$
QVSYFXSEJNFZKD-UHFFFAOYSA-N
     RDKit          3D

 21 22  0  0  0  0  0  0  0  0999 V2000
   21.4103   11.7504   11.9520 C   0  0  0  0  0  0  0  0  0  0  0  0
   20.5807   10.8177   11.2899 O   0  0  0  0  0  0  0  0  0  0  0  0
   19.7004   11.4330   10.3873 C   0  0  0  0  0  0  0  0  0  0  0  0
   18.2950   11.6787   10.9419 C   0  0  0  0  0  0  0  0  0  0  0  0
   18.1302   12.3997   11.9266 O   0  0  0  0  0  0  0  0  0  0  0  0
   17.2674   11.0074   10.2847 N   0  0  0  0  0  0  0  0  0  0  0  0
   16.0498   10.8431   10.9455 C   0  0  0  0  0  0  0  0  0  0  0  0
   15.4408   11.8793   11.6642 C   0  0  0  0  0  0  0  0  0  0  0  0
   14.5790   11.5849   12.7035 C   0  0  0  0  0  0  0  0  0  0  0  0
   14.3942   10.2532   13.0425 C   0  0  0  0  0  0  0  0  0  0  0  0
   14.9237    9.2348   12.2283 C   0  0  0  0  0  0  0  0  0  0  0  0
   14.8096    7.7974   12.5200 C   0  0  0  0  0  0  0  0  0  0  0  0
   14.9556    6.9771   11.6199 O   0  0  0  0  0  0  0  0  0  0  0  0
   14.5895    7.4641   13.8308 N   0  0  0  0  0  0  0  0  0  0  0  0
   14.1660    6.1313   14.1658 C   0  0  0  0  0  0  0  0  0  0  0  0
   12.7064    6.0258   13.8584 C   0  0  0  0  0  0  0  0  0  0  0  0
   12.1110    5.3585   12.8065 C   0  0  0  0  0  0  0  0  0  0  0  0
   10.6927    5.4692   12.8287 C   0  0  0  0  0  0  0  0  0  0  0  0
   10.2521    6.2370   13.8823 C   0  0  0  0  0  0  0  0  0  0  0  0
   11.5443    6.8264   14.8340 S   0  0  0  0  0  0  0  0  0  0  0  0
   15.6661    9.5351   11.1039 C   0  0  0  0  0  0  0  0  0  0  0  0
  1  2  1  0
  2  3  1  0
  3  4  1  0
  4  5  2  0
  4  6  1  0
  6  7  1  0
  7  8  2  0
  8  9  1  0
  9 10  2  0
 10 11  1  0
 11 12  1  0
 12 13  2  0
 12 14  1  0
 14 15  1  0
 15 16  1  0
 16 17  2  0
 17 18  1  0
 18 19  2  0
 19 20  1  0
 11 21  2  0
 21  7  1  0
 20 16  1  0
M  END
>  <ref_pdb>  (1) 
c0270a

>  <tags>  (1) 
['Syndirella base']

>  <exports>  (1) 
['/opt/xchem-fragalysis-2/maxwin/CHIKV_HIPPO/hippo_prod/syndirella_scaffolds_44from15.sdf']

>  <ref_url>  (1) 
None

>  <original SMILES>  (1) 
COCC(=O)Nc1cccc(C(=O)NCc2cccs2)c1

>  <inchikey>  (1) 
QVSYFXSEJNFZKD-UHFFFAOYSA-N

>  <ref_mols>  (1) 
c0692a,c0892a

>  <method>  (1) 
None

>  <original ID>  (1) 
QVSYFXSEJNFZKD-UHFFFAOYSA-N

>  <generation_date>  (1) 
None

>  <alias>  (1) 
None

>  <submitter_name>  (1) 
None

>  <HIPPO ID>  (1) 
6236

>  <submitter_email>  (1) 
None

$$$$
JXRCCCJCUJURBQ-UHFFFAOYSA-N
     RDKit          3D

 16 17  0  0  0  0  0  0  0  0999 V2000
   18.6413   10.4967   10.1389 C   0  0  0  0  0  0  0  0  0  0  0  0
   18.8846   11.6671   10.9985 C   0  0  0  0  0  0  0  0  0  0  0  0
   20.2114   12.1327   11.1057 C   0  0  0  0  0  0  0  0  0  0  0  0
   20.5113   13.2297   11.8968 C   0  0  0  0  0  0  0  0  0  0  0  0
   19.4873   13.8703   12.5813 C   0  0  0  0  0  0  0  0  0  0  0  0
   18.1768   13.3916   12.4769 C   0  0  0  0  0  0  0  0  0  0  0  0
   17.1731   14.0041   13.1822 O   0  0  0  0  0  0  0  0  0  0  0  0
   17.8386   12.2671   11.7046 C   0  0  0  0  0  0  0  0  0  0  0  0
   16.4637   11.8946   11.6023 N   0  0  0  0  0  0  0  0  0  0  0  0
   15.8605   10.6383   11.3549 C   0  0  0  0  0  0  0  0  0  0  0  0
   15.4480   10.2735   10.0632 C   0  0  0  0  0  0  0  0  0  0  0  0
   14.8398    9.0450    9.8003 C   0  0  0  0  0  0  0  0  0  0  0  0
   14.6103    8.1738   10.8505 C   0  0  0  0  0  0  0  0  0  0  0  0
   13.9547    6.9952   10.6445 O   0  0  0  0  0  0  0  0  0  0  0  0
   14.9987    8.5101   12.1448 C   0  0  0  0  0  0  0  0  0  0  0  0
   15.6204    9.7405   12.3966 C   0  0  0  0  0  0  0  0  0  0  0  0
  1  2  1  0
  2  3  2  0
  3  4  1  0
  4  5  2  0
  5  6  1  0
  6  7  1  0
  6  8  2  0
  8  9  1  0
  9 10  1  0
 10 11  2  0
 11 12  1  0
 12 13  2  0
 13 14  1  0
 13 15  1  0
 15 16  2  0
  8  2  1  0
 16 10  1  0
M  END
>  <ref_pdb>  (2) 
c0270a

>  <tags>  (2) 
['Syndirella base']

>  <exports>  (2) 
['/opt/xchem-fragalysis-2/maxwin/CHIKV_HIPPO/hippo_prod/syndirella_scaffolds_44from15.sdf']

>  <ref_url>  (2) 
None

>  <original SMILES>  (2) 
Cc1cccc(O)c1Nc1ccc(O)cc1

>  <inchikey>  (2) 
JXRCCCJCUJURBQ-UHFFFAOYSA-N

>  <ref_mols>  (2) 
c0935a,c1116c,c1116a

>  <method>  (2) 
None

>  <original ID>  (2) 
JXRCCCJCUJURBQ-UHFFFAOYSA-N

>  <generation_date>  (2) 
None

>  <alias>  (2) 
None

>  <submitter_name>  (2) 
None

>  <HIPPO ID>  (2) 
6237

>  <submitter_email>  (2) 
None

$$$$
UGYMLSSIEIESGU-MRVPVSSYSA-N
     RDKit          3D

 15 16  0  0  0  0  0  0  0  0999 V2000
    8.2128    4.2362   15.0036 O   0  0  0  0  0  0  0  0  0  0  0  0
    8.8437    5.2532   14.7201 C   0  0  0  0  0  0  0  0  0  0  0  0
    9.8150    5.2161   13.6144 C   0  0  0  0  0  0  0  0  0  0  0  0
   10.5941    6.2842   13.4328 C   0  0  0  0  0  0  0  0  0  0  0  0
   10.5428    7.4301   14.1790 N   0  0  0  0  0  0  0  0  0  0  0  0
    9.6245    7.4872   15.0827 C   0  0  0  0  0  0  0  0  0  0  0  0
    8.7692    6.4606   15.3906 N   0  0  0  0  0  0  0  0  0  0  0  0
    7.8238    6.6365   16.4739 C   0  0  0  0  0  0  0  0  0  0  0  0
    6.4650    7.1322   15.9713 C   0  0  1  0  0  0  0  0  0  0  0  0
    5.3690    6.5828   16.8504 C   0  0  0  0  0  0  0  0  0  0  0  0
    5.4108    7.3161   18.1816 C   0  0  0  0  0  0  0  0  0  0  0  0
    5.7286    8.9853   17.7409 S   0  0  0  0  0  6  0  0  0  0  0  0
    6.8615    9.4512   18.5023 O   0  0  0  0  0  0  0  0  0  0  0  0
    4.4730    9.7081   17.7310 O   0  0  0  0  0  0  0  0  0  0  0  0
    6.2574    8.6327   16.0829 C   0  0  0  0  0  0  0  0  0  0  0  0
  1  2  2  0
  2  3  1  0
  3  4  2  0
  4  5  1  0
  5  6  2  0
  6  7  1  0
  7  8  1  0
  9  8  1  1
  9 10  1  0
 10 11  1  0
 11 12  1  0
 12 13  2  0
 12 14  2  0
 12 15  1  0
  7  2  1  0
 15  9  1  0
M  END
>  <ref_pdb>  (3) 
c0300a

>  <tags>  (3) 
['Syndirella base']

>  <exports>  (3) 
['/opt/xchem-fragalysis-2/maxwin/CHIKV_HIPPO/hippo_prod/syndirella_scaffolds_44from15.sdf']

>  <ref_url>  (3) 
None

>  <original SMILES>  (3) 
O=c1ccncn1C[C@H]1CCS(=O)(=O)C1

>  <inchikey>  (3) 
UGYMLSSIEIESGU-MRVPVSSYSA-N

>  <ref_mols>  (3) 
c0314a,c1182a

>  <method>  (3) 
None

>  <original ID>  (3) 
UGYMLSSIEIESGU-MRVPVSSYSA-N

>  <generation_date>  (3) 
None

>  <alias>  (3) 
None

>  <submitter_name>  (3) 
None

>  <HIPPO ID>  (3) 
6243

>  <submitter_email>  (3) 
None

$$$$
UGYMLSSIEIESGU-MRVPVSSYSA-N
     RDKit          3D

 15 16  0  0  0  0  0  0  0  0999 V2000
    8.0252    3.8756   14.4741 O   0  0  0  0  0  0  0  0  0  0  0  0
    8.5380    4.9940   14.4871 C   0  0  0  0  0  0  0  0  0  0  0  0
    9.8635    5.1639   13.8750 C   0  0  0  0  0  0  0  0  0  0  0  0
   10.4554    6.3506   13.9940 C   0  0  0  0  0  0  0  0  0  0  0  0
    9.9133    7.4229   14.6384 N   0  0  0  0  0  0  0  0  0  0  0  0
    8.7002    7.2898   15.0727 C   0  0  0  0  0  0  0  0  0  0  0  0
    7.9620    6.1291   15.0363 N   0  0  0  0  0  0  0  0  0  0  0  0
    6.5093    6.0732   15.2444 C   0  0  0  0  0  0  0  0  0  0  0  0
    5.8257    6.8426   16.3634 C   0  0  1  0  0  0  0  0  0  0  0  0
    6.5424    6.6999   17.6914 C   0  0  0  0  0  0  0  0  0  0  0  0
    5.7763    7.5504   18.6821 C   0  0  0  0  0  0  0  0  0  0  0  0
    5.4637    9.0274   17.7797 S   0  0  0  0  0  6  0  0  0  0  0  0
    6.6087    9.8721   17.9776 O   0  0  0  0  0  0  0  0  0  0  0  0
    4.1370    9.5110   18.0682 O   0  0  0  0  0  0  0  0  0  0  0  0
    5.5580    8.3222   16.1466 C   0  0  0  0  0  0  0  0  0  0  0  0
  1  2  2  0
  2  3  1  0
  3  4  2  0
  4  5  1  0
  5  6  2  0
  6  7  1  0
  7  8  1  0
  9  8  1  6
  9 10  1  0
 10 11  1  0
 11 12  1  0
 12 13  2  0
 12 14  2  0
 12 15  1  0
  7  2  1  0
 15  9  1  0
M  END
>  <ref_pdb>  (4) 
c0300a

>  <tags>  (4) 
['Syndirella base']

>  <exports>  (4) 
['/opt/xchem-fragalysis-2/maxwin/CHIKV_HIPPO/hippo_prod/syndirella_scaffolds_44from15.sdf']

>  <ref_url>  (4) 
None

>  <original SMILES>  (4) 
O=c1ccncn1C[C@H]1CCS(=O)(=O)C1

>  <inchikey>  (4) 
UGYMLSSIEIESGU-MRVPVSSYSA-N

>  <ref_mols>  (4) 
c0314a,c1182a

>  <method>  (4) 
None

>  <original ID>  (4) 
UGYMLSSIEIESGU-MRVPVSSYSA-N

>  <generation_date>  (4) 
None

>  <alias>  (4) 
None

>  <submitter_name>  (4) 
None

>  <HIPPO ID>  (4) 
6244

>  <submitter_email>  (4) 
None

$$$$
QQERROZMPKKQER-UHFFFAOYSA-N
     RDKit          3D

 16 17  0  0  0  0  0  0  0  0999 V2000
   13.9020    8.9383    9.0983 C   0  0  0  0  0  0  0  0  0  0  0  0
   14.6703    8.3405   10.2557 C   0  0  0  0  0  0  0  0  0  0  0  0
   14.4865    6.8874   10.4794 C   0  0  0  0  0  0  0  0  0  0  0  0
   15.2881    6.0778   11.1361 N   0  0  0  0  0  0  0  0  0  0  0  0
   14.7503    4.8440   10.8572 C   0  0  0  0  0  0  0  0  0  0  0  0
   15.4574    3.5660   11.1690 C   0  0  0  0  0  0  0  0  0  0  0  0
   16.1233    3.5930   12.4794 N   0  0  0  0  0  0  0  0  0  0  0  0
   15.5405    2.9290   13.5427 C   0  0  0  0  0  0  0  0  0  0  0  0
   16.1190    2.8649   14.7442 C   0  0  0  0  0  0  0  0  0  0  0  0
   17.3720    3.5306   14.9626 C   0  0  0  0  0  0  0  0  0  0  0  0
   18.1084    3.4454   16.6687 Br  0  0  0  0  0  0  0  0  0  0  0  0
   17.9714    4.1819   13.9599 C   0  0  0  0  0  0  0  0  0  0  0  0
   17.3781    4.1783   12.5981 C   0  0  0  0  0  0  0  0  0  0  0  0
   18.0274    4.6782   11.6786 O   0  0  0  0  0  0  0  0  0  0  0  0
   13.6192    4.8813   10.1346 N   0  0  0  0  0  0  0  0  0  0  0  0
   13.4358    6.2469    9.8918 O   0  0  0  0  0  0  0  0  0  0  0  0
  1  2  1  0
  2  3  1  0
  3  4  2  0
  4  5  1  0
  5  6  1  0
  6  7  1  0
  7  8  1  0
  8  9  2  0
  9 10  1  0
 10 11  1  0
 10 12  2  0
 12 13  1  0
 13 14  2  0
  5 15  2  0
 15 16  1  0
 16  3  1  0
 13  7  1  0
M  END
>  <ref_pdb>  (5) 
c0300a

>  <tags>  (5) 
['Syndirella base']

>  <exports>  (5) 
['/opt/xchem-fragalysis-2/maxwin/CHIKV_HIPPO/hippo_prod/syndirella_scaffolds_44from15.sdf']

>  <ref_url>  (5) 
None

>  <original SMILES>  (5) 
CCc1nc(Cn2ccc(Br)cc2=O)no1

>  <inchikey>  (5) 
QQERROZMPKKQER-UHFFFAOYSA-N

>  <ref_mols>  (5) 
c0316a,c1091a

>  <method>  (5) 
None

>  <original ID>  (5) 
QQERROZMPKKQER-UHFFFAOYSA-N

>  <generation_date>  (5) 
None

>  <alias>  (5) 
None

>  <submitter_name>  (5) 
None

>  <HIPPO ID>  (5) 
6251

>  <submitter_email>  (5) 
None

$$$$
XMHJIXAUMMKGLT-UHFFFAOYSA-N
     RDKit          3D

 14 14  0  0  0  0  0  0  0  0999 V2000
   21.5519   11.4958   10.5348 C   0  0  0  0  0  0  0  0  0  0  0  0
   20.1365   11.3577   10.4487 O   0  0  0  0  0  0  0  0  0  0  0  0
   19.4711   12.4104   11.1332 C   0  0  0  0  0  0  0  0  0  0  0  0
   17.9807   12.1214   11.3335 C   0  0  0  0  0  0  0  0  0  0  0  0
   17.2942   12.8618   12.0380 O   0  0  0  0  0  0  0  0  0  0  0  0
   17.5192   11.0308   10.6314 N   0  0  0  0  0  0  0  0  0  0  0  0
   16.3620   10.2477   10.8378 C   0  0  0  0  0  0  0  0  0  0  0  0
   16.0311    9.3628    9.8023 C   0  0  0  0  0  0  0  0  0  0  0  0
   15.0851    8.3600    9.9883 C   0  0  0  0  0  0  0  0  0  0  0  0
   14.5532    8.1683   11.2419 C   0  0  0  0  0  0  0  0  0  0  0  0
   13.7313    7.0978   11.4334 O   0  0  0  0  0  0  0  0  0  0  0  0
   14.8193    9.0770   12.2590 C   0  0  0  0  0  0  0  0  0  0  0  0
   15.6117   10.2066   12.0232 C   0  0  0  0  0  0  0  0  0  0  0  0
   15.7802   11.0980   13.0883 N   0  0  0  0  0  0  0  0  0  0  0  0
  1  2  1  0
  2  3  1  0
  3  4  1  0
  4  5  2  0
  4  6  1  0
  6  7  1  0
  7  8  2  0
  8  9  1  0
  9 10  2  0
 10 11  1  0
 10 12  1  0
 12 13  2  0
 13 14  1  0
 13  7  1  0
M  END
>  <ref_pdb>  (6) 
c0270a

>  <tags>  (6) 
['Syndirella base']

>  <exports>  (6) 
['/opt/xchem-fragalysis-2/maxwin/CHIKV_HIPPO/hippo_prod/syndirella_scaffolds_44from15.sdf']

>  <ref_url>  (6) 
None

>  <original SMILES>  (6) 
COCC(=O)Nc1ccc(O)cc1N

>  <inchikey>  (6) 
XMHJIXAUMMKGLT-UHFFFAOYSA-N

>  <ref_mols>  (6) 
c0935a,c1353a

>  <method>  (6) 
None

>  <original ID>  (6) 
XMHJIXAUMMKGLT-UHFFFAOYSA-N

>  <generation_date>  (6) 
None

>  <alias>  (6) 
None

>  <submitter_name>  (6) 
None

>  <HIPPO ID>  (6) 
6255

>  <submitter_email>  (6) 
None

$$$$
RGWZNWCCBDMABV-UHFFFAOYSA-N
     RDKit          3D

 15 17  0  0  0  0  0  0  0  0999 V2000
   13.9793   13.4345   11.7725 N   0  0  0  0  0  0  0  0  0  0  0  0
   14.4444   12.2118   12.1973 C   0  0  0  0  0  0  0  0  0  0  0  0
   14.5523   11.9626   13.5685 C   0  0  0  0  0  0  0  0  0  0  0  0
   14.9011   10.6945   14.0713 C   0  0  0  0  0  0  0  0  0  0  0  0
   15.1454   10.5353   15.5043 C   0  0  0  0  0  0  0  0  0  0  0  0
   15.2266    9.3397   16.2658 C   0  0  0  0  0  0  0  0  0  0  0  0
   15.4824    9.7394   17.5552 C   0  0  0  0  0  0  0  0  0  0  0  0
   15.5544   11.0975   17.5163 N   0  0  0  0  0  0  0  0  0  0  0  0
   15.3413   11.6046   16.2951 N   0  0  0  0  0  0  0  0  0  0  0  0
   15.0277    9.6275   13.1766 C   0  0  0  0  0  0  0  0  0  0  0  0
   14.8957    9.8906   11.8222 C   0  0  0  0  0  0  0  0  0  0  0  0
   14.6403   11.1498   11.3401 C   0  0  0  0  0  0  0  0  0  0  0  0
   14.5927   11.1818    9.9765 O   0  0  0  0  0  0  0  0  0  0  0  0
   14.8832    9.8042    9.6528 C   0  0  0  0  0  0  0  0  0  0  0  0
   14.9908    8.9664   10.8226 O   0  0  0  0  0  0  0  0  0  0  0  0
  1  2  1  0
  2  3  2  0
  3  4  1  0
  4  5  1  0
  5  6  1  0
  6  7  2  0
  7  8  1  0
  8  9  1  0
  4 10  2  0
 10 11  1  0
 11 12  2  0
 12 13  1  0
 13 14  1  0
 14 15  1  0
 12  2  1  0
  9  5  2  0
 15 11  1  0
M  END
>  <ref_pdb>  (7) 
c0300a

>  <tags>  (7) 
['Syndirella base']

>  <exports>  (7) 
['/opt/xchem-fragalysis-2/maxwin/CHIKV_HIPPO/hippo_prod/syndirella_scaffolds_44from15.sdf']

>  <ref_url>  (7) 
None

>  <original SMILES>  (7) 
Nc1cc(-c2cc[nH]n2)cc2c1OCO2

>  <inchikey>  (7) 
RGWZNWCCBDMABV-UHFFFAOYSA-N

>  <ref_mols>  (7) 
c0864a,c1338a

>  <method>  (7) 
None

>  <original ID>  (7) 
RGWZNWCCBDMABV-UHFFFAOYSA-N

>  <generation_date>  (7) 
None

>  <alias>  (7) 
None

>  <submitter_name>  (7) 
None

>  <HIPPO ID>  (7) 
6257

>  <submitter_email>  (7) 
None

$$$$
RGWZNWCCBDMABV-UHFFFAOYSA-N
     RDKit          3D

 15 17  0  0  0  0  0  0  0  0999 V2000
   14.0132   13.4001   11.7471 N   0  0  0  0  0  0  0  0  0  0  0  0
   14.4524   12.1775   12.1803 C   0  0  0  0  0  0  0  0  0  0  0  0
   14.5608   11.9359   13.5527 C   0  0  0  0  0  0  0  0  0  0  0  0
   14.9018   10.6688   14.0623 C   0  0  0  0  0  0  0  0  0  0  0  0
   15.1434   10.5158   15.4965 C   0  0  0  0  0  0  0  0  0  0  0  0
   15.2052    9.3239   16.2656 C   0  0  0  0  0  0  0  0  0  0  0  0
   15.4647    9.7277   17.5531 C   0  0  0  0  0  0  0  0  0  0  0  0
   15.5560   11.0844   17.5058 N   0  0  0  0  0  0  0  0  0  0  0  0
   15.3571   11.5867   16.2807 N   0  0  0  0  0  0  0  0  0  0  0  0
   15.0238    9.5966   13.1728 C   0  0  0  0  0  0  0  0  0  0  0  0
   14.8968    9.8543   11.8165 C   0  0  0  0  0  0  0  0  0  0  0  0
   14.6519   11.1129   11.3282 C   0  0  0  0  0  0  0  0  0  0  0  0
   14.6149   11.1419    9.9642 O   0  0  0  0  0  0  0  0  0  0  0  0
   14.8841    9.7596    9.6472 C   0  0  0  0  0  0  0  0  0  0  0  0
   14.9917    8.9260   10.8206 O   0  0  0  0  0  0  0  0  0  0  0  0
  1  2  1  0
  2  3  2  0
  3  4  1  0
  4  5  1  0
  5  6  1  0
  6  7  2  0
  7  8  1  0
  8  9  1  0
  4 10  2  0
 10 11  1  0
 11 12  2  0
 12 13  1  0
 13 14  1  0
 14 15  1  0
 12  2  1  0
  9  5  2  0
 15 11  1  0
M  END
>  <ref_pdb>  (8) 
c0300a

>  <tags>  (8) 
['Syndirella base']

>  <exports>  (8) 
['/opt/xchem-fragalysis-2/maxwin/CHIKV_HIPPO/hippo_prod/syndirella_scaffolds_44from15.sdf']

>  <ref_url>  (8) 
None

>  <original SMILES>  (8) 
Nc1cc(-c2cc[nH]n2)cc2c1OCO2

>  <inchikey>  (8) 
RGWZNWCCBDMABV-UHFFFAOYSA-N

>  <ref_mols>  (8) 
c0864a,c1203a

>  <method>  (8) 
None

>  <original ID>  (8) 
RGWZNWCCBDMABV-UHFFFAOYSA-N

>  <generation_date>  (8) 
None

>  <alias>  (8) 
None

>  <submitter_name>  (8) 
None

>  <HIPPO ID>  (8) 
6259

>  <submitter_email>  (8) 
None

$$$$
MIMRXPBJLOWRMN-UHFFFAOYSA-N
     RDKit          3D

 15 16  0  0  0  0  0  0  0  0999 V2000
   13.6106    7.0932   11.3976 O   0  0  0  0  0  0  0  0  0  0  0  0
   14.4982    8.1015   11.1643 C   0  0  0  0  0  0  0  0  0  0  0  0
   14.8688    8.4239    9.8736 C   0  0  0  0  0  0  0  0  0  0  0  0
   15.8659    9.3718    9.6812 C   0  0  0  0  0  0  0  0  0  0  0  0
   16.4763   10.0243   10.7621 C   0  0  0  0  0  0  0  0  0  0  0  0
   17.6044   10.8070   10.4944 N   0  0  0  0  0  0  0  0  0  0  0  0
   18.2966   11.8349   11.1501 C   0  0  0  0  0  0  0  0  0  0  0  0
   17.6818   12.7481   11.9934 C   0  0  0  0  0  0  0  0  0  0  0  0
   18.4613   13.7711   12.5121 C   0  0  0  0  0  0  0  0  0  0  0  0
   19.7845   13.9253   12.2795 N   0  0  0  0  0  0  0  0  0  0  0  0
   20.3794   13.0001   11.5183 C   0  0  0  0  0  0  0  0  0  0  0  0
   19.6837   11.9588   10.9494 C   0  0  0  0  0  0  0  0  0  0  0  0
   20.3346   11.0341   10.1974 O   0  0  0  0  0  0  0  0  0  0  0  0
   15.9577    9.8141   12.0385 C   0  0  0  0  0  0  0  0  0  0  0  0
   15.0023    8.8155   12.2461 C   0  0  0  0  0  0  0  0  0  0  0  0
  1  2  1  0
  2  3  2  0
  3  4  1  0
  4  5  2  0
  5  6  1  0
  6  7  1  0
  7  8  2  0
  8  9  1  0
  9 10  2  0
 10 11  1  0
 11 12  2  0
 12 13  1  0
  5 14  1  0
 14 15  2  0
 15  2  1  0
 12  7  1  0
M  END
>  <ref_pdb>  (9) 
c0270a

>  <tags>  (9) 
['Syndirella base']

>  <exports>  (9) 
['/opt/xchem-fragalysis-2/maxwin/CHIKV_HIPPO/hippo_prod/syndirella_scaffolds_44from15.sdf']

>  <ref_url>  (9) 
None

>  <original SMILES>  (9) 
Oc1ccc(Nc2ccncc2O)cc1

>  <inchikey>  (9) 
MIMRXPBJLOWRMN-UHFFFAOYSA-N

>  <ref_mols>  (9) 
c0935a,c1132a,c1132f

>  <method>  (9) 
None

>  <original ID>  (9) 
MIMRXPBJLOWRMN-UHFFFAOYSA-N

>  <generation_date>  (9) 
None

>  <alias>  (9) 
None

>  <submitter_name>  (9) 
None

>  <HIPPO ID>  (9) 
6260

>  <submitter_email>  (9) 
None

$$$$
MMXSHBZOILNLPJ-UHFFFAOYSA-N
     RDKit          3D

 14 15  0  0  0  0  0  0  0  0999 V2000
   13.4627   13.2134   13.8958 C   0  0  0  0  0  0  0  0  0  0  0  0
   14.3058   13.0535   12.6365 C   0  0  0  0  0  0  0  0  0  0  0  0
   15.2394   14.2519   12.7030 C   0  0  0  0  0  0  0  0  0  0  0  0
   13.5096   13.1566   11.3159 C   0  0  0  0  0  0  0  0  0  0  0  0
   14.8463   11.6333   12.6262 C   0  0  0  0  0  0  0  0  0  0  0  0
   15.1265   10.9216   13.7809 C   0  0  0  0  0  0  0  0  0  0  0  0
   15.1493    9.5760   13.8151 N   0  0  0  0  0  0  0  0  0  0  0  0
   14.9543    8.9451   12.6464 C   0  0  0  0  0  0  0  0  0  0  0  0
   14.8571    7.5637   12.6234 C   0  0  0  0  0  0  0  0  0  0  0  0
   14.6444    6.8849   11.4266 C   0  0  0  0  0  0  0  0  0  0  0  0
   14.5565    7.5960   10.2357 C   0  0  0  0  0  0  0  0  0  0  0  0
   14.7094    8.9777   10.2306 C   0  0  0  0  0  0  0  0  0  0  0  0
   14.8668    9.6613   11.4274 C   0  0  0  0  0  0  0  0  0  0  0  0
   14.8664   10.9978   11.4272 N   0  0  0  0  0  0  0  0  0  0  0  0
  1  2  1  0
  2  3  1  0
  2  4  1  0
  2  5  1  0
  5  6  2  0
  6  7  1  0
  7  8  2  0
  8  9  1  0
  9 10  2  0
 10 11  1  0
 11 12  2  0
 12 13  1  0
 13 14  2  0
 14  5  1  0
 13  8  1  0
M  END
>  <ref_pdb>  (10) 
c0300a

>  <tags>  (10) 
['Syndirella base']

>  <exports>  (10) 
['/opt/xchem-fragalysis-2/maxwin/CHIKV_HIPPO/hippo_prod/syndirella_scaffolds_44from15.sdf']

>  <ref_url>  (10) 
None

>  <original SMILES>  (10) 
CC(C)(C)c1cnc2ccccc2n1

>  <inchikey>  (10) 
MMXSHBZOILNLPJ-UHFFFAOYSA-N

>  <ref_mols>  (10) 
c0839a,c1299a

>  <method>  (10) 
None

>  <original ID>  (10) 
MMXSHBZOILNLPJ-UHFFFAOYSA-N

>  <generation_date>  (10) 
None

>  <alias>  (10) 
None

>  <submitter_name>  (10) 
None

>  <HIPPO ID>  (10) 
6276

>  <submitter_email>  (10) 
None

$$$$
DGASNXVGKHJXGC-UHFFFAOYSA-N
     RDKit          3D

 18 20  0  0  0  0  0  0  0  0999 V2000
   14.7841    9.7548    9.7323 C   0  0  0  0  0  0  0  0  0  0  0  0
   14.6592   10.3981   11.0202 N   0  0  0  0  0  0  0  0  0  0  0  0
   14.5044   11.7444   11.2343 C   0  0  0  0  0  0  0  0  0  0  0  0
   14.0753   12.6131   10.3082 N   0  0  0  0  0  0  0  0  0  0  0  0
   14.7656   12.0878   12.4576 N   0  0  0  0  0  0  0  0  0  0  0  0
   14.9443   10.9101   13.1132 C   0  0  0  0  0  0  0  0  0  0  0  0
   15.2667   10.7414   14.4568 C   0  0  0  0  0  0  0  0  0  0  0  0
   15.5118    9.4498   14.8943 C   0  0  0  0  0  0  0  0  0  0  0  0
   15.3512    8.3589   14.0533 C   0  0  0  0  0  0  0  0  0  0  0  0
   14.9109    8.4799   12.7306 C   0  0  0  0  0  0  0  0  0  0  0  0
   14.6766    7.3573   11.9523 N   0  0  0  0  0  0  0  0  0  0  0  0
   14.2493    6.1058   12.5867 C   0  0  0  0  0  0  0  0  0  0  0  0
   12.7939    6.0142   12.9477 C   0  0  0  0  0  0  0  0  0  0  0  0
   11.8175    5.3080   12.2752 C   0  0  0  0  0  0  0  0  0  0  0  0
   10.5408    5.4154   12.8926 C   0  0  0  0  0  0  0  0  0  0  0  0
   10.5781    6.2007   14.0212 C   0  0  0  0  0  0  0  0  0  0  0  0
   12.1548    6.7775   14.3449 S   0  0  0  0  0  0  0  0  0  0  0  0
   14.8138    9.8077   12.2624 C   0  0  0  0  0  0  0  0  0  0  0  0
  1  2  1  0
  2  3  1  0
  3  4  1  0
  3  5  2  0
  5  6  1  0
  6  7  2  0
  7  8  1  0
  8  9  2  0
  9 10  1  0
 10 11  1  0
 11 12  1  0
 12 13  1  0
 13 14  2  0
 14 15  1  0
 15 16  2  0
 16 17  1  0
 10 18  2  0
 18  2  1  0
 18  6  1  0
 17 13  1  0
M  END
>  <ref_pdb>  (11) 
c1454a

>  <tags>  (11) 
['Syndirella base']

>  <exports>  (11) 
['/opt/xchem-fragalysis-2/maxwin/CHIKV_HIPPO/hippo_prod/syndirella_scaffolds_44from15.sdf']

>  <ref_url>  (11) 
None

>  <original SMILES>  (11) 
Cn1c(N)nc2cccc(NCc3cccs3)c21

>  <inchikey>  (11) 
DGASNXVGKHJXGC-UHFFFAOYSA-N

>  <ref_mols>  (11) 
c0892a,c1203a

>  <method>  (11) 
None

>  <original ID>  (11) 
DGASNXVGKHJXGC-UHFFFAOYSA-N

>  <generation_date>  (11) 
None

>  <alias>  (11) 
None

>  <submitter_name>  (11) 
None

>  <HIPPO ID>  (11) 
6278

>  <submitter_email>  (11) 
None

$$$$
XMHJIXAUMMKGLT-UHFFFAOYSA-N
     RDKit          3D

 14 14  0  0  0  0  0  0  0  0999 V2000
   21.5314   11.4836   10.5043 C   0  0  0  0  0  0  0  0  0  0  0  0
   20.1124   11.3556   10.4381 O   0  0  0  0  0  0  0  0  0  0  0  0
   19.4678   12.4101   11.1369 C   0  0  0  0  0  0  0  0  0  0  0  0
   17.9951   12.1000   11.4176 C   0  0  0  0  0  0  0  0  0  0  0  0
   17.3839   12.7475   12.2664 O   0  0  0  0  0  0  0  0  0  0  0  0
   17.4629   11.0999   10.6362 N   0  0  0  0  0  0  0  0  0  0  0  0
   16.3323   10.2801   10.8588 C   0  0  0  0  0  0  0  0  0  0  0  0
   16.0387    9.3635    9.8387 C   0  0  0  0  0  0  0  0  0  0  0  0
   15.1255    8.3314   10.0368 C   0  0  0  0  0  0  0  0  0  0  0  0
   14.5735    8.1505   11.2842 C   0  0  0  0  0  0  0  0  0  0  0  0
   13.7487    7.0821   11.4736 O   0  0  0  0  0  0  0  0  0  0  0  0
   14.7961    9.0866   12.2851 C   0  0  0  0  0  0  0  0  0  0  0  0
   15.6016   10.2068   12.0546 C   0  0  0  0  0  0  0  0  0  0  0  0
   15.4060   11.2882   12.9343 N   0  0  0  0  0  0  0  0  0  0  0  0
  1  2  1  0
  2  3  1  0
  3  4  1  0
  4  5  2  0
  4  6  1  0
  6  7  1  0
  7  8  2  0
  8  9  1  0
  9 10  2  0
 10 11  1  0
 10 12  1  0
 12 13  2  0
 13 14  1  0
 13  7  1  0
M  END
>  <ref_pdb>  (12) 
c0270a

>  <tags>  (12) 
['Syndirella base']

>  <exports>  (12) 
['/opt/xchem-fragalysis-2/maxwin/CHIKV_HIPPO/hippo_prod/syndirella_scaffolds_44from15.sdf']

>  <ref_url>  (12) 
None

>  <original SMILES>  (12) 
COCC(=O)Nc1ccc(O)cc1N

>  <inchikey>  (12) 
XMHJIXAUMMKGLT-UHFFFAOYSA-N

>  <ref_mols>  (12) 
c0935a,c1116a

>  <method>  (12) 
None

>  <original ID>  (12) 
XMHJIXAUMMKGLT-UHFFFAOYSA-N

>  <generation_date>  (12) 
None

>  <alias>  (12) 
None

>  <submitter_name>  (12) 
None

>  <HIPPO ID>  (12) 
6285

>  <submitter_email>  (12) 
None

$$$$
WXVLITNXXROEMR-UHFFFAOYSA-N
     RDKit          3D

 22 24  0  0  0  0  0  0  0  0999 V2000
   13.7778    8.8513    8.9663 C   0  0  0  0  0  0  0  0  0  0  0  0
   14.6194    8.2823   10.0818 C   0  0  0  0  0  0  0  0  0  0  0  0
   14.4339    6.8461   10.3992 C   0  0  0  0  0  0  0  0  0  0  0  0
   15.2393    6.1041   11.1185 N   0  0  0  0  0  0  0  0  0  0  0  0
   14.6572    4.8692   11.0724 C   0  0  0  0  0  0  0  0  0  0  0  0
   15.1902    3.8184   11.7929 N   0  0  0  0  0  0  0  0  0  0  0  0
   16.4342    3.9629   12.3719 C   0  0  0  0  0  0  0  0  0  0  0  0
   17.3439    4.6301   11.8784 O   0  0  0  0  0  0  0  0  0  0  0  0
   16.7302    3.3434   13.6835 C   0  0  0  0  0  0  0  0  0  0  0  0
   17.7780    3.8876   14.4250 C   0  0  0  0  0  0  0  0  0  0  0  0
   18.0524    3.3451   15.6617 C   0  0  0  0  0  0  0  0  0  0  0  0
   17.3807    2.3053   16.1913 N   0  0  0  0  0  0  0  0  0  0  0  0
   16.3935    1.7605   15.4742 C   0  0  0  0  0  0  0  0  0  0  0  0
   15.7662    0.6009   15.8912 N   0  0  0  0  0  0  0  0  0  0  0  0
   15.8909   -0.0425   17.1901 C   0  0  0  0  0  0  0  0  0  0  0  0
   17.2639   -0.5864   17.5667 C   0  0  0  0  0  0  0  0  0  0  0  0
   17.1248   -0.6913   19.0584 C   0  0  0  0  0  0  0  0  0  0  0  0
   16.1028    0.0478   19.5128 C   0  0  0  0  0  0  0  0  0  0  0  0
   15.3977    0.7588   18.3951 C   0  0  0  0  0  0  0  0  0  0  0  0
   16.0240    2.2818   14.2271 C   0  0  0  0  0  0  0  0  0  0  0  0
   13.5001    4.8352   10.3995 N   0  0  0  0  0  0  0  0  0  0  0  0
   13.3571    6.1548    9.9279 O   0  0  0  0  0  0  0  0  0  0  0  0
  1  2  1  0
  2  3  1  0
  3  4  2  0
  4  5  1  0
  5  6  1  0
  6  7  1  0
  7  8  2  0
  7  9  1  0
  9 10  2  0
 10 11  1  0
 11 12  2  0
 12 13  1  0
 13 14  1  0
 14 15  1  0
 15 16  1  0
 16 17  1  0
 17 18  2  0
 18 19  1  0
 13 20  2  0
  5 21  2  0
 21 22  1  0
 22  3  1  0
 20  9  1  0
 19 15  1  0
M  END
>  <ref_pdb>  (13) 
c0300a

>  <tags>  (13) 
['Syndirella base']

>  <exports>  (13) 
['/opt/xchem-fragalysis-2/maxwin/CHIKV_HIPPO/hippo_prod/syndirella_scaffolds_44from15.sdf']

>  <ref_url>  (13) 
None

>  <original SMILES>  (13) 
CCc1nc(NC(=O)c2ccnc(NC3CC=CC3)c2)no1

>  <inchikey>  (13) 
WXVLITNXXROEMR-UHFFFAOYSA-N

>  <ref_mols>  (13) 
c0316a,c0441a

>  <method>  (13) 
None

>  <original ID>  (13) 
WXVLITNXXROEMR-UHFFFAOYSA-N

>  <generation_date>  (13) 
None

>  <alias>  (13) 
None

>  <submitter_name>  (13) 
None

>  <HIPPO ID>  (13) 
6297

>  <submitter_email>  (13) 
None

$$$$
XQWKZXHQRAAZAF-UHFFFAOYSA-N
     RDKit          3D

 15 16  0  0  0  0  0  0  0  0999 V2000
   15.8531   10.7781   13.4197 C   0  0  0  0  0  0  0  0  0  0  0  0
   15.6540    9.8185   12.2855 C   0  0  0  0  0  0  0  0  0  0  0  0
   14.9414    8.6309   12.5328 C   0  0  0  0  0  0  0  0  0  0  0  0
   14.5585    7.7896   11.4903 C   0  0  0  0  0  0  0  0  0  0  0  0
   14.8790    8.1291   10.1882 C   0  0  0  0  0  0  0  0  0  0  0  0
   15.6569    9.2545    9.9455 C   0  0  0  0  0  0  0  0  0  0  0  0
   15.9547    9.4836    8.6374 O   0  0  0  0  0  0  0  0  0  0  0  0
   16.0756   10.1137   10.9777 C   0  0  0  0  0  0  0  0  0  0  0  0
   16.7780   11.3038   10.6513 N   0  0  0  0  0  0  0  0  0  0  0  0
   18.0581   11.7177   11.1016 C   0  0  0  0  0  0  0  0  0  0  0  0
   19.2106   11.1276   10.5782 C   0  0  0  0  0  0  0  0  0  0  0  0
   20.4835   11.6079   10.8921 C   0  0  0  0  0  0  0  0  0  0  0  0
   20.6139   12.7068   11.7331 C   0  0  0  0  0  0  0  0  0  0  0  0
   19.4732   13.3211   12.2512 C   0  0  0  0  0  0  0  0  0  0  0  0
   18.2003   12.8304   11.9353 C   0  0  0  0  0  0  0  0  0  0  0  0
  1  2  1  0
  2  3  2  0
  3  4  1  0
  4  5  2  0
  5  6  1  0
  6  7  1  0
  6  8  2  0
  8  9  1  0
  9 10  1  0
 10 11  2  0
 11 12  1  0
 12 13  2  0
 13 14  1  0
 14 15  2  0
  8  2  1  0
 15 10  1  0
M  END
>  <ref_pdb>  (14) 
c0270a

>  <tags>  (14) 
['Syndirella base']

>  <exports>  (14) 
['/opt/xchem-fragalysis-2/maxwin/CHIKV_HIPPO/hippo_prod/syndirella_scaffolds_44from15.sdf']

>  <ref_url>  (14) 
None

>  <original SMILES>  (14) 
Cc1cccc(O)c1Nc1ccccc1

>  <inchikey>  (14) 
XQWKZXHQRAAZAF-UHFFFAOYSA-N

>  <ref_mols>  (14) 
c0692a,c1116c,c1116a

>  <method>  (14) 
None

>  <original ID>  (14) 
XQWKZXHQRAAZAF-UHFFFAOYSA-N

>  <generation_date>  (14) 
None

>  <alias>  (14) 
None

>  <submitter_name>  (14) 
None

>  <HIPPO ID>  (14) 
6300

>  <submitter_email>  (14) 
None

$$$$
JXRCCCJCUJURBQ-UHFFFAOYSA-N
     RDKit          3D

 16 17  0  0  0  0  0  0  0  0999 V2000
   15.8571   10.8075   13.4262 C   0  0  0  0  0  0  0  0  0  0  0  0
   15.6572    9.8467   12.2935 C   0  0  0  0  0  0  0  0  0  0  0  0
   14.9492    8.6565   12.5395 C   0  0  0  0  0  0  0  0  0  0  0  0
   14.5724    7.8137   11.4959 C   0  0  0  0  0  0  0  0  0  0  0  0
   14.8933    8.1550   10.1941 C   0  0  0  0  0  0  0  0  0  0  0  0
   15.6655    9.2848    9.9519 C   0  0  0  0  0  0  0  0  0  0  0  0
   15.9555    9.5167    8.6430 O   0  0  0  0  0  0  0  0  0  0  0  0
   16.0790   10.1442   10.9862 C   0  0  0  0  0  0  0  0  0  0  0  0
   16.7840   11.3403   10.6723 N   0  0  0  0  0  0  0  0  0  0  0  0
   18.0970   11.6969   11.0792 C   0  0  0  0  0  0  0  0  0  0  0  0
   19.1989   11.0509   10.5177 C   0  0  0  0  0  0  0  0  0  0  0  0
   20.5050   11.4291   10.8253 C   0  0  0  0  0  0  0  0  0  0  0  0
   20.7143   12.4684   11.7131 C   0  0  0  0  0  0  0  0  0  0  0  0
   22.0012   12.7449   12.0545 O   0  0  0  0  0  0  0  0  0  0  0  0
   19.6374   13.1708   12.2497 C   0  0  0  0  0  0  0  0  0  0  0  0
   18.3264   12.7852   11.9278 C   0  0  0  0  0  0  0  0  0  0  0  0
  1  2  1  0
  2  3  2  0
  3  4  1  0
  4  5  2  0
  5  6  1  0
  6  7  1  0
  6  8  2  0
  8  9  1  0
  9 10  1  0
 10 11  2  0
 11 12  1  0
 12 13  2  0
 13 14  1  0
 13 15  1  0
 15 16  2  0
  8  2  1  0
 16 10  1  0
M  END
>  <ref_pdb>  (15) 
c0270a

>  <tags>  (15) 
[]

>  <exports>  (15) 
['/opt/xchem-fragalysis-2/maxwin/CHIKV_HIPPO/hippo_prod/syndirella_scaffolds_44from15.sdf']

>  <ref_url>  (15) 
None

>  <original SMILES>  (15) 
Cc1cccc(O)c1Nc1ccc(O)cc1

>  <inchikey>  (15) 
JXRCCCJCUJURBQ-UHFFFAOYSA-N

>  <ref_mols>  (15) 
c0692a,c1116a

>  <method>  (15) 
None

>  <original ID>  (15) 
JXRCCCJCUJURBQ-UHFFFAOYSA-N

>  <generation_date>  (15) 
None

>  <alias>  (15) 
None

>  <submitter_name>  (15) 
None

>  <HIPPO ID>  (15) 
104911

>  <submitter_email>  (15) 
None

$$$$
