ver_1.2
     RDKit          3D

 16 17  0  0  0  0  0  0  0  0999 V2000
    3.6333    2.7036    0.3661 C   0  0  0  0  0  0  0  0  0  0  0  0
    4.0900    1.2728    0.4298 C   0  0  0  0  0  0  0  0  0  0  0  0
    3.0001    0.3213    0.0149 C   0  0  0  0  0  0  0  0  0  0  0  0
    2.1036   -0.2224    0.8618 N   0  0  0  0  0  0  0  0  0  0  0  0
    1.3033   -1.0089    0.1210 C   0  0  0  0  0  0  0  0  0  0  0  0
    0.2080   -1.7376    0.8354 C   0  0  0  0  0  0  0  0  0  0  0  0
   -0.9614   -0.8644    0.8204 N   0  0  0  0  0  0  0  0  0  0  0  0
   -1.1883    0.0244    1.8067 C   0  0  0  0  0  0  0  0  0  0  0  0
   -2.2982    0.8431    1.7785 C   0  0  0  0  0  0  0  0  0  0  0  0
   -3.1943    0.7591    0.7312 C   0  0  0  0  0  0  0  0  0  0  0  0
   -4.7508    1.8781    0.6517 Br  0  0  0  0  0  0  0  0  0  0  0  0
   -2.9439   -0.1673   -0.2824 C   0  0  0  0  0  0  0  0  0  0  0  0
   -1.8238   -0.9724   -0.2249 C   0  0  0  0  0  0  0  0  0  0  0  0
   -1.6686   -1.7905   -1.1886 O   0  0  0  0  0  0  0  0  0  0  0  0
    1.7354   -0.9220   -1.1580 N   0  0  0  0  0  0  0  0  0  0  0  0
    2.7555   -0.1172   -1.1963 O   0  0  0  0  0  0  0  0  0  0  0  0
  1  2  1  0
  2  3  1  0
  3  4  2  0
  4  5  1  0
  5  6  1  0
  6  7  1  0
  7  8  1  0
  8  9  2  0
  9 10  1  0
 10 11  1  0
 10 12  2  0
 12 13  1  0
 13 14  2  0
  5 15  2  0
 15 16  1  0
 16  3  1  0
 13  7  1  0
M  END
>  <ref_url>  (1) 
https://hippo.winokan.com

>  <submitter_name>  (1) 
Max Winokan

>  <submitter_email>  (1) 
max.winokan@diamond.ac.uk

>  <submitter_institution>  (1) 
DLS

>  <generation_date>  (1) 
2024-11-01

>  <method>  (1) 
HIPPO 1GJXW46

>  <exports>  (1) 
exports

>  <smiles>  (1) 
smiles

>  <ref_mols>  (1) 
fragment inspirations

>  <original ID>  (1) 
original ID

$$$$
QQERROZMPKKQER-UHFFFAOYSA-N
     RDKit          3D

 16 17  0  0  0  0  0  0  0  0999 V2000
   13.9020    8.9383    9.0983 C   0  0  0  0  0  0  0  0  0  0  0  0
   14.6703    8.3405   10.2557 C   0  0  0  0  0  0  0  0  0  0  0  0
   14.4865    6.8874   10.4794 C   0  0  0  0  0  0  0  0  0  0  0  0
   15.2881    6.0778   11.1361 N   0  0  0  0  0  0  0  0  0  0  0  0
   14.7503    4.8440   10.8572 C   0  0  0  0  0  0  0  0  0  0  0  0
   15.4574    3.5660   11.1690 C   0  0  0  0  0  0  0  0  0  0  0  0
   16.1233    3.5930   12.4794 N   0  0  0  0  0  0  0  0  0  0  0  0
   15.5405    2.9290   13.5427 C   0  0  0  0  0  0  0  0  0  0  0  0
   16.1190    2.8649   14.7442 C   0  0  0  0  0  0  0  0  0  0  0  0
   17.3720    3.5306   14.9626 C   0  0  0  0  0  0  0  0  0  0  0  0
   18.1084    3.4454   16.6687 Br  0  0  0  0  0  0  0  0  0  0  0  0
   17.9714    4.1819   13.9599 C   0  0  0  0  0  0  0  0  0  0  0  0
   17.3781    4.1783   12.5981 C   0  0  0  0  0  0  0  0  0  0  0  0
   18.0274    4.6782   11.6786 O   0  0  0  0  0  0  0  0  0  0  0  0
   13.6192    4.8813   10.1346 N   0  0  0  0  0  0  0  0  0  0  0  0
   13.4358    6.2469    9.8918 O   0  0  0  0  0  0  0  0  0  0  0  0
  1  2  1  0
  2  3  1  0
  3  4  2  0
  4  5  1  0
  5  6  1  0
  6  7  1  0
  7  8  1  0
  8  9  2  0
  9 10  1  0
 10 11  1  0
 10 12  2  0
 12 13  1  0
 13 14  2  0
  5 15  2  0
 15 16  1  0
 16  3  1  0
 13  7  1  0
M  END
>  <HIPPO ID>  (1) 
6251

>  <ref_url>  (1) 
None

>  <ref_pdb>  (1) 
c0300a

>  <inchikey>  (1) 
QQERROZMPKKQER-UHFFFAOYSA-N

>  <original SMILES>  (1) 
CCc1nc(Cn2ccc(Br)cc2=O)no1

>  <generation_date>  (1) 
None

>  <tags>  (1) 
['Syndirella base']

>  <ref_mols>  (1) 
c0316a,c1091a

>  <alias>  (1) 
None

>  <original ID>  (1) 
QQERROZMPKKQER-UHFFFAOYSA-N

>  <exports>  (1) 
['/opt/xchem-fragalysis-2/maxwin/CHIKV_HIPPO/hippo_prod/CHIKV_prod11_recipes/Recipe_1G8PPKY_poses.sdf', '/opt/xchem-fragalysis-2/maxwin/CHIKV_HIPPO/web/web_resources/pose_sdfs/modal_c1917_poses.sdf', '/opt/xchem-fragalysis-2/maxwin/CHIKV_HIPPO/hippo_prod/CHIKV_prod11_recipes/Recipe_1GERJCJ_poses.sdf', '/opt/xchem-fragalysis-2/maxwin/CHIKV_HIPPO/hippo_prod/CHIKV_prod11b_recipes/Recipe_1GFD8FK_poses.sdf', '/opt/xchem-fragalysis-2/maxwin/CHIKV_HIPPO/hippo_prod/CHIKV_prod11c_recipes/Recipe_1GJWBFH_poses.sdf', '/opt/xchem-fragalysis-2/maxwin/CHIKV_HIPPO/hippo_prod/CHIKV_prod11c_recipes/Recipe_1GJXK8G_poses.sdf', '/opt/xchem-fragalysis-2/maxwin/CHIKV_HIPPO/hippo_prod/CHIKV_prod11c_recipes/Recipe_1GJXW46_poses.sdf']

>  <method>  (1) 
None

>  <submitter_email>  (1) 
None

>  <submitter_name>  (1) 
None

$$$$
MMXSHBZOILNLPJ-UHFFFAOYSA-N
     RDKit          3D

 14 15  0  0  0  0  0  0  0  0999 V2000
   13.4627   13.2134   13.8958 C   0  0  0  0  0  0  0  0  0  0  0  0
   14.3058   13.0535   12.6365 C   0  0  0  0  0  0  0  0  0  0  0  0
   15.2394   14.2519   12.7030 C   0  0  0  0  0  0  0  0  0  0  0  0
   13.5096   13.1566   11.3159 C   0  0  0  0  0  0  0  0  0  0  0  0
   14.8463   11.6333   12.6262 C   0  0  0  0  0  0  0  0  0  0  0  0
   15.1265   10.9216   13.7809 C   0  0  0  0  0  0  0  0  0  0  0  0
   15.1493    9.5760   13.8151 N   0  0  0  0  0  0  0  0  0  0  0  0
   14.9543    8.9451   12.6464 C   0  0  0  0  0  0  0  0  0  0  0  0
   14.8571    7.5637   12.6234 C   0  0  0  0  0  0  0  0  0  0  0  0
   14.6444    6.8849   11.4266 C   0  0  0  0  0  0  0  0  0  0  0  0
   14.5565    7.5960   10.2357 C   0  0  0  0  0  0  0  0  0  0  0  0
   14.7094    8.9777   10.2306 C   0  0  0  0  0  0  0  0  0  0  0  0
   14.8668    9.6613   11.4274 C   0  0  0  0  0  0  0  0  0  0  0  0
   14.8664   10.9978   11.4272 N   0  0  0  0  0  0  0  0  0  0  0  0
  1  2  1  0
  2  3  1  0
  2  4  1  0
  2  5  1  0
  5  6  2  0
  6  7  1  0
  7  8  2  0
  8  9  1  0
  9 10  2  0
 10 11  1  0
 11 12  2  0
 12 13  1  0
 13 14  2  0
 14  5  1  0
 13  8  1  0
M  END
>  <HIPPO ID>  (2) 
6276

>  <ref_url>  (2) 
None

>  <ref_pdb>  (2) 
c0300a

>  <inchikey>  (2) 
MMXSHBZOILNLPJ-UHFFFAOYSA-N

>  <original SMILES>  (2) 
CC(C)(C)c1cnc2ccccc2n1

>  <generation_date>  (2) 
None

>  <tags>  (2) 
['Syndirella base']

>  <ref_mols>  (2) 
c0839a,c1299a

>  <alias>  (2) 
None

>  <original ID>  (2) 
MMXSHBZOILNLPJ-UHFFFAOYSA-N

>  <exports>  (2) 
['/opt/xchem-fragalysis-2/maxwin/CHIKV_HIPPO/hippo_prod/CHIKV_prod11_recipes/Recipe_1G8PPKY_poses.sdf', '/opt/xchem-fragalysis-2/maxwin/CHIKV_HIPPO/web/web_resources/pose_sdfs/modal_c1473_poses.sdf', '/opt/xchem-fragalysis-2/maxwin/CHIKV_HIPPO/hippo_prod/CHIKV_prod11_recipes/Recipe_1GERJCJ_poses.sdf', '/opt/xchem-fragalysis-2/maxwin/CHIKV_HIPPO/hippo_prod/CHIKV_prod11b_recipes/Recipe_1GFD8FK_poses.sdf', '/opt/xchem-fragalysis-2/maxwin/CHIKV_HIPPO/hippo_prod/CHIKV_prod11c_recipes/Recipe_1GJWBFH_poses.sdf', '/opt/xchem-fragalysis-2/maxwin/CHIKV_HIPPO/hippo_prod/CHIKV_prod11c_recipes/Recipe_1GJXK8G_poses.sdf', '/opt/xchem-fragalysis-2/maxwin/CHIKV_HIPPO/hippo_prod/CHIKV_prod11c_recipes/Recipe_1GJXW46_poses.sdf']

>  <method>  (2) 
None

>  <submitter_email>  (2) 
None

>  <submitter_name>  (2) 
None

$$$$
DGASNXVGKHJXGC-UHFFFAOYSA-N
     RDKit          3D

 18 20  0  0  0  0  0  0  0  0999 V2000
   14.7841    9.7548    9.7323 C   0  0  0  0  0  0  0  0  0  0  0  0
   14.6592   10.3981   11.0202 N   0  0  0  0  0  0  0  0  0  0  0  0
   14.5044   11.7444   11.2343 C   0  0  0  0  0  0  0  0  0  0  0  0
   14.0753   12.6131   10.3082 N   0  0  0  0  0  0  0  0  0  0  0  0
   14.7656   12.0878   12.4576 N   0  0  0  0  0  0  0  0  0  0  0  0
   14.9443   10.9101   13.1132 C   0  0  0  0  0  0  0  0  0  0  0  0
   15.2667   10.7414   14.4568 C   0  0  0  0  0  0  0  0  0  0  0  0
   15.5118    9.4498   14.8943 C   0  0  0  0  0  0  0  0  0  0  0  0
   15.3512    8.3589   14.0533 C   0  0  0  0  0  0  0  0  0  0  0  0
   14.9109    8.4799   12.7306 C   0  0  0  0  0  0  0  0  0  0  0  0
   14.6766    7.3573   11.9523 N   0  0  0  0  0  0  0  0  0  0  0  0
   14.2493    6.1058   12.5867 C   0  0  0  0  0  0  0  0  0  0  0  0
   12.7939    6.0142   12.9477 C   0  0  0  0  0  0  0  0  0  0  0  0
   11.8175    5.3080   12.2752 C   0  0  0  0  0  0  0  0  0  0  0  0
   10.5408    5.4154   12.8926 C   0  0  0  0  0  0  0  0  0  0  0  0
   10.5781    6.2007   14.0212 C   0  0  0  0  0  0  0  0  0  0  0  0
   12.1548    6.7775   14.3449 S   0  0  0  0  0  0  0  0  0  0  0  0
   14.8138    9.8077   12.2624 C   0  0  0  0  0  0  0  0  0  0  0  0
  1  2  1  0
  2  3  1  0
  3  4  1  0
  3  5  2  0
  5  6  1  0
  6  7  2  0
  7  8  1  0
  8  9  2  0
  9 10  1  0
 10 11  1  0
 11 12  1  0
 12 13  1  0
 13 14  2  0
 14 15  1  0
 15 16  2  0
 16 17  1  0
 10 18  2  0
 18  2  1  0
 18  6  1  0
 17 13  1  0
M  END
>  <HIPPO ID>  (3) 
6278

>  <ref_url>  (3) 
None

>  <ref_pdb>  (3) 
c1454a

>  <inchikey>  (3) 
DGASNXVGKHJXGC-UHFFFAOYSA-N

>  <original SMILES>  (3) 
Cn1c(N)nc2cccc(NCc3cccs3)c21

>  <generation_date>  (3) 
None

>  <tags>  (3) 
['Syndirella base']

>  <ref_mols>  (3) 
c0892a,c1203a

>  <alias>  (3) 
None

>  <original ID>  (3) 
DGASNXVGKHJXGC-UHFFFAOYSA-N

>  <exports>  (3) 
['/opt/xchem-fragalysis-2/maxwin/CHIKV_HIPPO/hippo_prod/CHIKV_prod11_recipes/Recipe_1G8PPKY_poses.sdf', '/opt/xchem-fragalysis-2/maxwin/CHIKV_HIPPO/web/web_resources/pose_sdfs/modal_c104_poses.sdf', '/opt/xchem-fragalysis-2/maxwin/CHIKV_HIPPO/hippo_prod/CHIKV_prod11_recipes/Recipe_1GERJCJ_poses.sdf', '/opt/xchem-fragalysis-2/maxwin/CHIKV_HIPPO/hippo_prod/CHIKV_prod11b_recipes/Recipe_1GFD8FK_poses.sdf', '/opt/xchem-fragalysis-2/maxwin/CHIKV_HIPPO/hippo_prod/CHIKV_prod11c_recipes/Recipe_1GJWBFH_poses.sdf', '/opt/xchem-fragalysis-2/maxwin/CHIKV_HIPPO/hippo_prod/CHIKV_prod11c_recipes/Recipe_1GJXK8G_poses.sdf', '/opt/xchem-fragalysis-2/maxwin/CHIKV_HIPPO/hippo_prod/CHIKV_prod11c_recipes/Recipe_1GJXW46_poses.sdf']

>  <method>  (3) 
None

>  <submitter_email>  (3) 
None

>  <submitter_name>  (3) 
None

$$$$
WXVLITNXXROEMR-UHFFFAOYSA-N
     RDKit          3D

 22 24  0  0  0  0  0  0  0  0999 V2000
   13.7778    8.8513    8.9663 C   0  0  0  0  0  0  0  0  0  0  0  0
   14.6194    8.2823   10.0818 C   0  0  0  0  0  0  0  0  0  0  0  0
   14.4339    6.8461   10.3992 C   0  0  0  0  0  0  0  0  0  0  0  0
   15.2393    6.1041   11.1185 N   0  0  0  0  0  0  0  0  0  0  0  0
   14.6572    4.8692   11.0724 C   0  0  0  0  0  0  0  0  0  0  0  0
   15.1902    3.8184   11.7929 N   0  0  0  0  0  0  0  0  0  0  0  0
   16.4342    3.9629   12.3719 C   0  0  0  0  0  0  0  0  0  0  0  0
   17.3439    4.6301   11.8784 O   0  0  0  0  0  0  0  0  0  0  0  0
   16.7302    3.3434   13.6835 C   0  0  0  0  0  0  0  0  0  0  0  0
   17.7780    3.8876   14.4250 C   0  0  0  0  0  0  0  0  0  0  0  0
   18.0524    3.3451   15.6617 C   0  0  0  0  0  0  0  0  0  0  0  0
   17.3807    2.3053   16.1913 N   0  0  0  0  0  0  0  0  0  0  0  0
   16.3935    1.7605   15.4742 C   0  0  0  0  0  0  0  0  0  0  0  0
   15.7662    0.6009   15.8912 N   0  0  0  0  0  0  0  0  0  0  0  0
   15.8909   -0.0425   17.1901 C   0  0  0  0  0  0  0  0  0  0  0  0
   17.2639   -0.5864   17.5667 C   0  0  0  0  0  0  0  0  0  0  0  0
   17.1248   -0.6913   19.0584 C   0  0  0  0  0  0  0  0  0  0  0  0
   16.1028    0.0478   19.5128 C   0  0  0  0  0  0  0  0  0  0  0  0
   15.3977    0.7588   18.3951 C   0  0  0  0  0  0  0  0  0  0  0  0
   16.0240    2.2818   14.2271 C   0  0  0  0  0  0  0  0  0  0  0  0
   13.5001    4.8352   10.3995 N   0  0  0  0  0  0  0  0  0  0  0  0
   13.3571    6.1548    9.9279 O   0  0  0  0  0  0  0  0  0  0  0  0
  1  2  1  0
  2  3  1  0
  3  4  2  0
  4  5  1  0
  5  6  1  0
  6  7  1  0
  7  8  2  0
  7  9  1  0
  9 10  2  0
 10 11  1  0
 11 12  2  0
 12 13  1  0
 13 14  1  0
 14 15  1  0
 15 16  1  0
 16 17  1  0
 17 18  2  0
 18 19  1  0
 13 20  2  0
  5 21  2  0
 21 22  1  0
 22  3  1  0
 20  9  1  0
 19 15  1  0
M  END
>  <HIPPO ID>  (4) 
6297

>  <ref_url>  (4) 
None

>  <ref_pdb>  (4) 
c0300a

>  <inchikey>  (4) 
WXVLITNXXROEMR-UHFFFAOYSA-N

>  <original SMILES>  (4) 
CCc1nc(NC(=O)c2ccnc(NC3CC=CC3)c2)no1

>  <generation_date>  (4) 
None

>  <tags>  (4) 
['Syndirella base']

>  <ref_mols>  (4) 
c0316a,c0441a

>  <alias>  (4) 
None

>  <original ID>  (4) 
WXVLITNXXROEMR-UHFFFAOYSA-N

>  <exports>  (4) 
['/opt/xchem-fragalysis-2/maxwin/CHIKV_HIPPO/hippo_prod/CHIKV_prod11_recipes/Recipe_1G8PPKY_poses.sdf', '/opt/xchem-fragalysis-2/maxwin/CHIKV_HIPPO/web/web_resources/pose_sdfs/modal_c93_poses.sdf', '/opt/xchem-fragalysis-2/maxwin/CHIKV_HIPPO/hippo_prod/CHIKV_prod11_recipes/Recipe_1GERJCJ_poses.sdf', '/opt/xchem-fragalysis-2/maxwin/CHIKV_HIPPO/hippo_prod/CHIKV_prod11b_recipes/Recipe_1GFD8FK_poses.sdf', '/opt/xchem-fragalysis-2/maxwin/CHIKV_HIPPO/hippo_prod/CHIKV_prod11c_recipes/Recipe_1GJWBFH_poses.sdf', '/opt/xchem-fragalysis-2/maxwin/CHIKV_HIPPO/hippo_prod/CHIKV_prod11c_recipes/Recipe_1GJXK8G_poses.sdf', '/opt/xchem-fragalysis-2/maxwin/CHIKV_HIPPO/hippo_prod/CHIKV_prod11c_recipes/Recipe_1GJXW46_poses.sdf']

>  <method>  (4) 
None

>  <submitter_email>  (4) 
None

>  <submitter_name>  (4) 
None

$$$$
QUPWOWSONXPQQX-HNNXBMFYSA-N
     RDKit          3D

 24 26  0  0  0  0  0  0  0  0999 V2000
   20.2112    1.6249   15.7839 C   0  0  0  0  0  0  0  0  0  0  0  0
   19.2081    0.7268   16.4729 C   0  0  0  0  0  0  0  0  0  0  0  0
   18.0418    1.4928   16.7630 O   0  0  0  0  0  0  0  0  0  0  0  0
   17.0272    0.7382   17.3131 C   0  0  0  0  0  0  0  0  0  0  0  0
   17.1447   -0.6169   17.2589 N   0  0  0  0  0  0  0  0  0  0  0  0
   16.1723   -1.3333   17.8595 C   0  0  0  0  0  0  0  0  0  0  0  0
   15.0910   -0.7702   18.5087 C   0  0  0  0  0  0  0  0  0  0  0  0
   14.9832    0.6133   18.5435 C   0  0  0  0  0  0  0  0  0  0  0  0
   15.9635    1.3921   17.9277 C   0  0  0  0  0  0  0  0  0  0  0  0
   15.9385    2.8445   18.1728 C   0  0  0  0  0  0  0  0  0  0  0  0
   15.8174    3.2190   19.3389 O   0  0  0  0  0  0  0  0  0  0  0  0
   16.0328    3.7589   17.1364 N   0  0  0  0  0  0  0  0  0  0  0  0
   16.0975    5.1795   17.4726 C   0  0  0  0  0  0  0  0  0  0  0  0
   15.6304    5.9294   16.2374 C   0  0  0  0  0  0  0  0  0  0  0  0
   14.6511    4.9264   15.6482 C   0  0  0  0  0  0  0  0  0  0  0  0
   15.3569    3.5598   15.8735 C   0  0  1  0  0  0  0  0  0  0  0  0
   16.2397    3.3909   14.6849 C   0  0  0  0  0  0  0  0  0  0  0  0
   15.5949    3.1896   13.4600 C   0  0  0  0  0  0  0  0  0  0  0  0
   16.1545    3.7319   12.3440 C   0  0  0  0  0  0  0  0  0  0  0  0
   17.3839    4.3255   12.5331 C   0  0  0  0  0  0  0  0  0  0  0  0
   18.0788    4.6972   11.4400 O   0  0  0  0  0  0  0  0  0  0  0  0
   18.6976    3.4883   11.0831 C   0  0  0  0  0  0  0  0  0  0  0  0
   18.1234    4.3785   13.6522 N   0  0  0  0  0  0  0  0  0  0  0  0
   17.5379    3.8682   14.7247 C   0  0  0  0  0  0  0  0  0  0  0  0
  1  2  1  0
  2  3  1  0
  3  4  1  0
  4  5  2  0
  5  6  1  0
  6  7  2  0
  7  8  1  0
  8  9  2  0
  9 10  1  0
 10 11  2  0
 10 12  1  0
 12 13  1  0
 13 14  1  0
 14 15  1  0
 15 16  1  0
 16 17  1  6
 17 18  2  0
 18 19  1  0
 19 20  2  0
 20 21  1  0
 21 22  1  0
 20 23  1  0
 23 24  2  0
  9  4  1  0
 16 12  1  0
 24 17  1  0
M  END
>  <HIPPO ID>  (5) 
8218

>  <ref_url>  (5) 
None

>  <ref_pdb>  (5) 
c0300a

>  <inchikey>  (5) 
QUPWOWSONXPQQX-HNNXBMFYSA-N

>  <original SMILES>  (5) 
CCOc1ncccc1C(=O)N1CCC[C@H]1c1ccc(OC)nc1

>  <generation_date>  (5) 
None

>  <tags>  (5) 
[]

>  <ref_mols>  (5) 
c0522a,c1118a

>  <alias>  (5) 
None

>  <original ID>  (5) 
QUPWOWSONXPQQX-HNNXBMFYSA-N

>  <exports>  (5) 
['/opt/xchem-fragalysis-2/maxwin/CHIKV_HIPPO/hippo_prod/CHIKV_prod11c_recipes/Recipe_1GJWBFH_poses.sdf', '/opt/xchem-fragalysis-2/maxwin/CHIKV_HIPPO/hippo_prod/CHIKV_prod11c_recipes/Recipe_1GJXK8G_poses.sdf', '/opt/xchem-fragalysis-2/maxwin/CHIKV_HIPPO/hippo_prod/CHIKV_prod11c_recipes/Recipe_1GJXW46_poses.sdf']

>  <method>  (5) 
None

>  <submitter_email>  (5) 
None

>  <submitter_name>  (5) 
None

$$$$
QUPWOWSONXPQQX-HNNXBMFYSA-N
     RDKit          3D

 24 26  0  0  0  0  0  0  0  0999 V2000
   20.2091    1.6337   15.7807 C   0  0  0  0  0  0  0  0  0  0  0  0
   19.2028    0.7392   16.4696 C   0  0  0  0  0  0  0  0  0  0  0  0
   18.0372    1.5086   16.7540 O   0  0  0  0  0  0  0  0  0  0  0  0
   17.0205    0.7563   17.3034 C   0  0  0  0  0  0  0  0  0  0  0  0
   17.1375   -0.5990   17.2530 N   0  0  0  0  0  0  0  0  0  0  0  0
   16.1638   -1.3136   17.8536 C   0  0  0  0  0  0  0  0  0  0  0  0
   15.0823   -0.7478   18.5001 C   0  0  0  0  0  0  0  0  0  0  0  0
   14.9748    0.6362   18.5305 C   0  0  0  0  0  0  0  0  0  0  0  0
   15.9555    1.4129   17.9127 C   0  0  0  0  0  0  0  0  0  0  0  0
   15.9327    2.8657   18.1535 C   0  0  0  0  0  0  0  0  0  0  0  0
   15.8473    3.2423   19.3222 O   0  0  0  0  0  0  0  0  0  0  0  0
   15.9841    3.7801   17.1147 N   0  0  0  0  0  0  0  0  0  0  0  0
   16.0190    5.2028   17.4428 C   0  0  0  0  0  0  0  0  0  0  0  0
   15.5662    5.9365   16.1918 C   0  0  0  0  0  0  0  0  0  0  0  0
   14.6134    4.9166   15.5893 C   0  0  0  0  0  0  0  0  0  0  0  0
   15.3320    3.5607   15.8437 C   0  0  1  0  0  0  0  0  0  0  0  0
   16.2370    3.3894   14.6727 C   0  0  0  0  0  0  0  0  0  0  0  0
   15.6089    3.1745   13.4415 C   0  0  0  0  0  0  0  0  0  0  0  0
   16.1719    3.7247   12.3321 C   0  0  0  0  0  0  0  0  0  0  0  0
   17.3956    4.3271   12.5323 C   0  0  0  0  0  0  0  0  0  0  0  0
   18.0985    4.6987   11.4442 O   0  0  0  0  0  0  0  0  0  0  0  0
   18.7006    3.4849   11.0779 C   0  0  0  0  0  0  0  0  0  0  0  0
   18.1261    4.3850   13.6571 N   0  0  0  0  0  0  0  0  0  0  0  0
   17.5302    3.8790   14.7266 C   0  0  0  0  0  0  0  0  0  0  0  0
  1  2  1  0
  2  3  1  0
  3  4  1  0
  4  5  2  0
  5  6  1  0
  6  7  2  0
  7  8  1  0
  8  9  2  0
  9 10  1  0
 10 11  2  0
 10 12  1  0
 12 13  1  0
 13 14  1  0
 14 15  1  0
 15 16  1  0
 16 17  1  6
 17 18  2  0
 18 19  1  0
 19 20  2  0
 20 21  1  0
 21 22  1  0
 20 23  1  0
 23 24  2  0
  9  4  1  0
 16 12  1  0
 24 17  1  0
M  END
>  <HIPPO ID>  (6) 
8219

>  <ref_url>  (6) 
None

>  <ref_pdb>  (6) 
c0300a

>  <inchikey>  (6) 
QUPWOWSONXPQQX-HNNXBMFYSA-N

>  <original SMILES>  (6) 
CCOc1ncccc1C(=O)N1CCC[C@H]1c1ccc(OC)nc1

>  <generation_date>  (6) 
None

>  <tags>  (6) 
[]

>  <ref_mols>  (6) 
c0522a,c1118a

>  <alias>  (6) 
None

>  <original ID>  (6) 
QUPWOWSONXPQQX-HNNXBMFYSA-N

>  <exports>  (6) 
['/opt/xchem-fragalysis-2/maxwin/CHIKV_HIPPO/hippo_prod/CHIKV_prod11c_recipes/Recipe_1GJWBFH_poses.sdf', '/opt/xchem-fragalysis-2/maxwin/CHIKV_HIPPO/hippo_prod/CHIKV_prod11c_recipes/Recipe_1GJXK8G_poses.sdf', '/opt/xchem-fragalysis-2/maxwin/CHIKV_HIPPO/hippo_prod/CHIKV_prod11c_recipes/Recipe_1GJXW46_poses.sdf']

>  <method>  (6) 
None

>  <submitter_email>  (6) 
None

>  <submitter_name>  (6) 
None

$$$$
FHBQCFGVZIABGO-HNNXBMFYSA-N
     RDKit          3D

 24 26  0  0  0  0  0  0  0  0999 V2000
   20.2484    1.6725   15.8100 C   0  0  0  0  0  0  0  0  0  0  0  0
   19.1910    0.8071   16.4550 C   0  0  0  0  0  0  0  0  0  0  0  0
   17.9540    1.5182   16.4349 O   0  0  0  0  0  0  0  0  0  0  0  0
   16.9294    0.8026   17.0147 C   0  0  0  0  0  0  0  0  0  0  0  0
   17.1055   -0.5434   17.1495 N   0  0  0  0  0  0  0  0  0  0  0  0
   16.1506   -1.2168   17.8209 C   0  0  0  0  0  0  0  0  0  0  0  0
   15.0383   -0.6149   18.3716 C   0  0  0  0  0  0  0  0  0  0  0  0
   14.8690    0.7556   18.2022 C   0  0  0  0  0  0  0  0  0  0  0  0
   15.8117    1.4896   17.4770 C   0  0  0  0  0  0  0  0  0  0  0  0
   15.7090    2.9629   17.4960 C   0  0  0  0  0  0  0  0  0  0  0  0
   15.6175    3.4740   18.6162 O   0  0  0  0  0  0  0  0  0  0  0  0
   15.6996    3.7574   16.3395 N   0  0  0  0  0  0  0  0  0  0  0  0
   15.9187    5.2006   16.5192 C   0  0  0  0  0  0  0  0  0  0  0  0
   14.7970    6.0566   15.9525 C   0  0  0  0  0  0  0  0  0  0  0  0
   14.5211    5.6969   14.5064 C   0  0  0  0  0  0  0  0  0  0  0  0
   14.1765    4.2168   14.4362 C   0  0  0  0  0  0  0  0  0  0  0  0
   15.3030    3.2945   14.9933 C   0  0  1  0  0  0  0  0  0  0  0  0
   16.3763    3.3217   13.9482 C   0  0  0  0  0  0  0  0  0  0  0  0
   16.0102    3.1298   12.6063 C   0  0  0  0  0  0  0  0  0  0  0  0
   16.8761    3.4771   11.6096 C   0  0  0  0  0  0  0  0  0  0  0  0
   18.1136    3.8817   12.0222 C   0  0  0  0  0  0  0  0  0  0  0  0
   19.0285    4.2197   11.0959 O   0  0  0  0  0  0  0  0  0  0  0  0
   18.5535    4.0022   13.2706 N   0  0  0  0  0  0  0  0  0  0  0  0
   17.6770    3.6854   14.2245 C   0  0  0  0  0  0  0  0  0  0  0  0
  1  2  1  0
  2  3  1  0
  3  4  1  0
  4  5  2  0
  5  6  1  0
  6  7  2  0
  7  8  1  0
  8  9  2  0
  9 10  1  0
 10 11  2  0
 10 12  1  0
 12 13  1  0
 13 14  1  0
 14 15  1  0
 15 16  1  0
 16 17  1  0
 17 18  1  6
 18 19  2  0
 19 20  1  0
 20 21  2  0
 21 22  1  0
 21 23  1  0
 23 24  2  0
  9  4  1  0
 17 12  1  0
 24 18  1  0
M  END
>  <HIPPO ID>  (7) 
8222

>  <ref_url>  (7) 
None

>  <ref_pdb>  (7) 
c0300a

>  <inchikey>  (7) 
FHBQCFGVZIABGO-HNNXBMFYSA-N

>  <original SMILES>  (7) 
CCOc1ncccc1C(=O)N1CCCC[C@H]1c1ccc(O)nc1

>  <generation_date>  (7) 
None

>  <tags>  (7) 
[]

>  <ref_mols>  (7) 
c0522a,c1118a

>  <alias>  (7) 
None

>  <original ID>  (7) 
FHBQCFGVZIABGO-HNNXBMFYSA-N

>  <exports>  (7) 
['/opt/xchem-fragalysis-2/maxwin/CHIKV_HIPPO/hippo_prod/CHIKV_prod11c_recipes/Recipe_1GJWBFH_poses.sdf', '/opt/xchem-fragalysis-2/maxwin/CHIKV_HIPPO/hippo_prod/CHIKV_prod11c_recipes/Recipe_1GJXK8G_poses.sdf', '/opt/xchem-fragalysis-2/maxwin/CHIKV_HIPPO/hippo_prod/CHIKV_prod11c_recipes/Recipe_1GJXW46_poses.sdf']

>  <method>  (7) 
None

>  <submitter_email>  (7) 
None

>  <submitter_name>  (7) 
None

$$$$
FHBQCFGVZIABGO-HNNXBMFYSA-N
     RDKit          3D

 24 26  0  0  0  0  0  0  0  0999 V2000
   20.3000    1.8045   16.0402 C   0  0  0  0  0  0  0  0  0  0  0  0
   19.2381    0.8780   16.5863 C   0  0  0  0  0  0  0  0  0  0  0  0
   18.0309    1.6216   16.7580 O   0  0  0  0  0  0  0  0  0  0  0  0
   17.0029    0.8529   17.2614 C   0  0  0  0  0  0  0  0  0  0  0  0
   17.1891   -0.4966   17.3062 N   0  0  0  0  0  0  0  0  0  0  0  0
   16.2111   -1.2266   17.8800 C   0  0  0  0  0  0  0  0  0  0  0  0
   15.0595   -0.6786   18.4069 C   0  0  0  0  0  0  0  0  0  0  0  0
   14.8753    0.6966   18.3208 C   0  0  0  0  0  0  0  0  0  0  0  0
   15.8512    1.4884   17.7128 C   0  0  0  0  0  0  0  0  0  0  0  0
   15.6849    2.9524   17.7871 C   0  0  0  0  0  0  0  0  0  0  0  0
   15.6201    3.4232   18.9250 O   0  0  0  0  0  0  0  0  0  0  0  0
   15.5161    3.7622   16.6579 N   0  0  0  0  0  0  0  0  0  0  0  0
   15.4010    5.2013   16.8613 C   0  0  0  0  0  0  0  0  0  0  0  0
   14.1844    5.8121   16.1685 C   0  0  0  0  0  0  0  0  0  0  0  0
   13.8836    5.3187   14.7550 C   0  0  0  0  0  0  0  0  0  0  0  0
   14.2717    3.8659   14.4894 C   0  0  0  0  0  0  0  0  0  0  0  0
   15.4606    3.2826   15.2870 C   0  0  1  0  0  0  0  0  0  0  0  0
   16.6620    3.6404   14.4740 C   0  0  0  0  0  0  0  0  0  0  0  0
   16.8165    4.9374   13.9979 C   0  0  0  0  0  0  0  0  0  0  0  0
   17.4591    5.1406   12.8240 C   0  0  0  0  0  0  0  0  0  0  0  0
   18.1533    4.0844   12.3389 C   0  0  0  0  0  0  0  0  0  0  0  0
   18.8409    4.1969   11.1973 O   0  0  0  0  0  0  0  0  0  0  0  0
   18.2371    2.8756   12.8711 N   0  0  0  0  0  0  0  0  0  0  0  0
   17.4304    2.6471   13.9109 C   0  0  0  0  0  0  0  0  0  0  0  0
  1  2  1  0
  2  3  1  0
  3  4  1  0
  4  5  2  0
  5  6  1  0
  6  7  2  0
  7  8  1  0
  8  9  2  0
  9 10  1  0
 10 11  2  0
 10 12  1  0
 12 13  1  0
 13 14  1  0
 14 15  1  0
 15 16  1  0
 16 17  1  0
 17 18  1  6
 18 19  2  0
 19 20  1  0
 20 21  2  0
 21 22  1  0
 21 23  1  0
 23 24  2  0
  9  4  1  0
 17 12  1  0
 24 18  1  0
M  END
>  <HIPPO ID>  (8) 
8223

>  <ref_url>  (8) 
None

>  <ref_pdb>  (8) 
c0300a

>  <inchikey>  (8) 
FHBQCFGVZIABGO-HNNXBMFYSA-N

>  <original SMILES>  (8) 
CCOc1ncccc1C(=O)N1CCCC[C@H]1c1ccc(O)nc1

>  <generation_date>  (8) 
None

>  <tags>  (8) 
[]

>  <ref_mols>  (8) 
c0522a,c1118a

>  <alias>  (8) 
None

>  <original ID>  (8) 
FHBQCFGVZIABGO-HNNXBMFYSA-N

>  <exports>  (8) 
['/opt/xchem-fragalysis-2/maxwin/CHIKV_HIPPO/hippo_prod/CHIKV_prod11c_recipes/Recipe_1GJWBFH_poses.sdf', '/opt/xchem-fragalysis-2/maxwin/CHIKV_HIPPO/hippo_prod/CHIKV_prod11c_recipes/Recipe_1GJXK8G_poses.sdf', '/opt/xchem-fragalysis-2/maxwin/CHIKV_HIPPO/hippo_prod/CHIKV_prod11c_recipes/Recipe_1GJXW46_poses.sdf']

>  <method>  (8) 
None

>  <submitter_email>  (8) 
None

>  <submitter_name>  (8) 
None

$$$$
OPZXWXCXJQFWDV-INIZCTEOSA-N
     RDKit          3D

 25 27  0  0  0  0  0  0  0  0999 V2000
   20.6830    3.0176   16.3813 C   0  0  0  0  0  0  0  0  0  0  0  0
   20.0209    2.0186   16.3861 C   0  0  0  0  0  0  0  0  0  0  0  0
   19.0996    0.8892   16.4817 C   0  0  0  0  0  0  0  0  0  0  0  0
   17.8002    1.4161   16.2536 O   0  0  0  0  0  0  0  0  0  0  0  0
   16.8313    0.7299   16.9261 C   0  0  0  0  0  0  0  0  0  0  0  0
   17.0117   -0.6152   17.0483 N   0  0  0  0  0  0  0  0  0  0  0  0
   16.0999   -1.2703   17.7939 C   0  0  0  0  0  0  0  0  0  0  0  0
   15.0347   -0.6505   18.4180 C   0  0  0  0  0  0  0  0  0  0  0  0
   14.8684    0.7223   18.2546 C   0  0  0  0  0  0  0  0  0  0  0  0
   15.7672    1.4426   17.4645 C   0  0  0  0  0  0  0  0  0  0  0  0
   15.6979    2.9218   17.4943 C   0  0  0  0  0  0  0  0  0  0  0  0
   15.5929    3.4268   18.6177 O   0  0  0  0  0  0  0  0  0  0  0  0
   15.7361    3.7465   16.3500 N   0  0  0  0  0  0  0  0  0  0  0  0
   15.7483    5.1866   16.6400 C   0  0  0  0  0  0  0  0  0  0  0  0
   15.7910    6.0936   15.4129 C   0  0  0  0  0  0  0  0  0  0  0  0
   14.6796    5.7845   14.4178 C   0  0  0  0  0  0  0  0  0  0  0  0
   14.1351    4.3715   14.6023 C   0  0  0  0  0  0  0  0  0  0  0  0
   15.2165    3.3446   15.0292 C   0  0  1  0  0  0  0  0  0  0  0  0
   16.2280    3.3209   13.9221 C   0  0  0  0  0  0  0  0  0  0  0  0
   15.7933    3.2632   12.5866 C   0  0  0  0  0  0  0  0  0  0  0  0
   16.6539    3.6129   11.5829 C   0  0  0  0  0  0  0  0  0  0  0  0
   17.9337    3.8691   11.9807 C   0  0  0  0  0  0  0  0  0  0  0  0
   18.8678    4.1738   11.0756 O   0  0  0  0  0  0  0  0  0  0  0  0
   18.4484    3.8042   13.2038 N   0  0  0  0  0  0  0  0  0  0  0  0
   17.5703    3.5384   14.1692 C   0  0  0  0  0  0  0  0  0  0  0  0
  1  2  3  0
  2  3  1  0
  3  4  1  0
  4  5  1  0
  5  6  2  0
  6  7  1  0
  7  8  2  0
  8  9  1  0
  9 10  2  0
 10 11  1  0
 11 12  2  0
 11 13  1  0
 13 14  1  0
 14 15  1  0
 15 16  1  0
 16 17  1  0
 17 18  1  0
 18 19  1  6
 19 20  2  0
 20 21  1  0
 21 22  2  0
 22 23  1  0
 22 24  1  0
 24 25  2  0
 10  5  1  0
 18 13  1  0
 25 19  1  0
M  END
>  <HIPPO ID>  (9) 
8262

>  <ref_url>  (9) 
None

>  <ref_pdb>  (9) 
c0300a

>  <inchikey>  (9) 
OPZXWXCXJQFWDV-INIZCTEOSA-N

>  <original SMILES>  (9) 
C#CCOc1ncccc1C(=O)N1CCCC[C@H]1c1ccc(O)nc1

>  <generation_date>  (9) 
None

>  <tags>  (9) 
[]

>  <ref_mols>  (9) 
c0522a,c1118a

>  <alias>  (9) 
None

>  <original ID>  (9) 
OPZXWXCXJQFWDV-INIZCTEOSA-N

>  <exports>  (9) 
['/opt/xchem-fragalysis-2/maxwin/CHIKV_HIPPO/hippo_prod/CHIKV_prod11c_recipes/Recipe_1GJWBFH_poses.sdf', '/opt/xchem-fragalysis-2/maxwin/CHIKV_HIPPO/hippo_prod/CHIKV_prod11c_recipes/Recipe_1GJXK8G_poses.sdf', '/opt/xchem-fragalysis-2/maxwin/CHIKV_HIPPO/hippo_prod/CHIKV_prod11c_recipes/Recipe_1GJXW46_poses.sdf']

>  <method>  (9) 
None

>  <submitter_email>  (9) 
None

>  <submitter_name>  (9) 
None

$$$$
OPZXWXCXJQFWDV-INIZCTEOSA-N
     RDKit          3D

 25 27  0  0  0  0  0  0  0  0999 V2000
   20.6609    3.0573   16.3593 C   0  0  0  0  0  0  0  0  0  0  0  0
   19.9872    2.0661   16.3577 C   0  0  0  0  0  0  0  0  0  0  0  0
   19.0626    0.9397   16.4466 C   0  0  0  0  0  0  0  0  0  0  0  0
   17.7583    1.4721   16.2574 O   0  0  0  0  0  0  0  0  0  0  0  0
   16.8017    0.7560   16.9219 C   0  0  0  0  0  0  0  0  0  0  0  0
   17.0112   -0.5858   17.0400 N   0  0  0  0  0  0  0  0  0  0  0  0
   16.1150   -1.2637   17.7850 C   0  0  0  0  0  0  0  0  0  0  0  0
   15.0371   -0.6705   18.4127 C   0  0  0  0  0  0  0  0  0  0  0  0
   14.8387    0.6979   18.2517 C   0  0  0  0  0  0  0  0  0  0  0  0
   15.7192    1.4403   17.4617 C   0  0  0  0  0  0  0  0  0  0  0  0
   15.6061    2.9169   17.4802 C   0  0  0  0  0  0  0  0  0  0  0  0
   15.4605    3.4236   18.5974 O   0  0  0  0  0  0  0  0  0  0  0  0
   15.6564    3.7243   16.3309 N   0  0  0  0  0  0  0  0  0  0  0  0
   15.8351    5.1678   16.5424 C   0  0  0  0  0  0  0  0  0  0  0  0
   14.6622    5.9887   16.0323 C   0  0  0  0  0  0  0  0  0  0  0  0
   14.3956    5.6800   14.5723 C   0  0  0  0  0  0  0  0  0  0  0  0
   14.1306    4.1915   14.4197 C   0  0  0  0  0  0  0  0  0  0  0  0
   15.2768    3.2880   14.9700 C   0  0  1  0  0  0  0  0  0  0  0  0
   16.3536    3.3597   13.9308 C   0  0  0  0  0  0  0  0  0  0  0  0
   16.0029    3.1465   12.5883 C   0  0  0  0  0  0  0  0  0  0  0  0
   16.8766    3.4842   11.5954 C   0  0  0  0  0  0  0  0  0  0  0  0
   18.1058    3.9081   12.0136 C   0  0  0  0  0  0  0  0  0  0  0  0
   19.0310    4.2269   11.0914 O   0  0  0  0  0  0  0  0  0  0  0  0
   18.5270    4.0694   13.2633 N   0  0  0  0  0  0  0  0  0  0  0  0
   17.6439    3.7564   14.2124 C   0  0  0  0  0  0  0  0  0  0  0  0
  1  2  3  0
  2  3  1  0
  3  4  1  0
  4  5  1  0
  5  6  2  0
  6  7  1  0
  7  8  2  0
  8  9  1  0
  9 10  2  0
 10 11  1  0
 11 12  2  0
 11 13  1  0
 13 14  1  0
 14 15  1  0
 15 16  1  0
 16 17  1  0
 17 18  1  0
 18 19  1  6
 19 20  2  0
 20 21  1  0
 21 22  2  0
 22 23  1  0
 22 24  1  0
 24 25  2  0
 10  5  1  0
 18 13  1  0
 25 19  1  0
M  END
>  <HIPPO ID>  (10) 
8263

>  <ref_url>  (10) 
None

>  <ref_pdb>  (10) 
c0300a

>  <inchikey>  (10) 
OPZXWXCXJQFWDV-INIZCTEOSA-N

>  <original SMILES>  (10) 
C#CCOc1ncccc1C(=O)N1CCCC[C@H]1c1ccc(O)nc1

>  <generation_date>  (10) 
None

>  <tags>  (10) 
[]

>  <ref_mols>  (10) 
c0522a,c1118a

>  <alias>  (10) 
None

>  <original ID>  (10) 
OPZXWXCXJQFWDV-INIZCTEOSA-N

>  <exports>  (10) 
['/opt/xchem-fragalysis-2/maxwin/CHIKV_HIPPO/hippo_prod/CHIKV_prod11c_recipes/Recipe_1GJWBFH_poses.sdf', '/opt/xchem-fragalysis-2/maxwin/CHIKV_HIPPO/hippo_prod/CHIKV_prod11c_recipes/Recipe_1GJXK8G_poses.sdf', '/opt/xchem-fragalysis-2/maxwin/CHIKV_HIPPO/hippo_prod/CHIKV_prod11c_recipes/Recipe_1GJXW46_poses.sdf']

>  <method>  (10) 
None

>  <submitter_email>  (10) 
None

>  <submitter_name>  (10) 
None

$$$$
LIQLVJPJJWUNTN-INIZCTEOSA-N
     RDKit          3D

 25 27  0  0  0  0  0  0  0  0999 V2000
   20.7005    2.9287   16.3882 C   0  0  0  0  0  0  0  0  0  0  0  0
   20.0590    1.9167   16.4172 C   0  0  0  0  0  0  0  0  0  0  0  0
   19.1635    0.7710   16.5614 C   0  0  0  0  0  0  0  0  0  0  0  0
   17.8496    1.2971   16.4997 O   0  0  0  0  0  0  0  0  0  0  0  0
   16.9449    0.5862   17.2351 C   0  0  0  0  0  0  0  0  0  0  0  0
   17.1204   -0.7613   17.2869 N   0  0  0  0  0  0  0  0  0  0  0  0
   16.2117   -1.4489   18.0091 C   0  0  0  0  0  0  0  0  0  0  0  0
   15.1492   -0.8615   18.6721 C   0  0  0  0  0  0  0  0  0  0  0  0
   14.9936    0.5178   18.5931 C   0  0  0  0  0  0  0  0  0  0  0  0
   15.9050    1.2734   17.8546 C   0  0  0  0  0  0  0  0  0  0  0  0
   15.7823    2.7558   17.8886 C   0  0  0  0  0  0  0  0  0  0  0  0
   15.2869    3.2788   18.8879 O   0  0  0  0  0  0  0  0  0  0  0  0
   16.2146    3.5335   16.8014 N   0  0  0  0  0  0  0  0  0  0  0  0
   16.2121    4.9753   16.9970 C   0  0  0  0  0  0  0  0  0  0  0  0
   14.9011    5.4271   16.3907 C   0  0  0  0  0  0  0  0  0  0  0  0
   14.7552    4.5133   15.1904 C   0  0  0  0  0  0  0  0  0  0  0  0
   15.5882    3.2375   15.5286 C   0  0  1  0  0  0  0  0  0  0  0  0
   16.4738    3.0532   14.3347 C   0  0  0  0  0  0  0  0  0  0  0  0
   15.8084    2.6832   13.1644 C   0  0  0  0  0  0  0  0  0  0  0  0
   16.2290    3.2048   11.9726 C   0  0  0  0  0  0  0  0  0  0  0  0
   17.3193    4.0373   12.0463 C   0  0  0  0  0  0  0  0  0  0  0  0
   17.2790    5.1136   11.2065 O   0  0  0  0  0  0  0  0  0  0  0  0
   16.3143    6.0379   11.7454 C   0  0  0  0  0  0  0  0  0  0  0  0
   18.1542    4.1923   13.0886 N   0  0  0  0  0  0  0  0  0  0  0  0
   17.7134    3.6605   14.2374 C   0  0  0  0  0  0  0  0  0  0  0  0
  1  2  3  0
  2  3  1  0
  3  4  1  0
  4  5  1  0
  5  6  2  0
  6  7  1  0
  7  8  2  0
  8  9  1  0
  9 10  2  0
 10 11  1  0
 11 12  2  0
 11 13  1  0
 13 14  1  0
 14 15  1  0
 15 16  1  0
 16 17  1  0
 17 18  1  6
 18 19  2  0
 19 20  1  0
 20 21  2  0
 21 22  1  0
 22 23  1  0
 21 24  1  0
 24 25  2  0
 10  5  1  0
 17 13  1  0
 25 18  1  0
M  END
>  <HIPPO ID>  (11) 
8429

>  <ref_url>  (11) 
None

>  <ref_pdb>  (11) 
c0300a

>  <inchikey>  (11) 
LIQLVJPJJWUNTN-INIZCTEOSA-N

>  <original SMILES>  (11) 
C#CCOc1ncccc1C(=O)N1CCC[C@H]1c1ccc(OC)nc1

>  <generation_date>  (11) 
None

>  <tags>  (11) 
[]

>  <ref_mols>  (11) 
c0522a,c1118a

>  <alias>  (11) 
None

>  <original ID>  (11) 
LIQLVJPJJWUNTN-INIZCTEOSA-N

>  <exports>  (11) 
['/opt/xchem-fragalysis-2/maxwin/CHIKV_HIPPO/hippo_prod/CHIKV_prod11c_recipes/Recipe_1GJWBFH_poses.sdf', '/opt/xchem-fragalysis-2/maxwin/CHIKV_HIPPO/hippo_prod/CHIKV_prod11c_recipes/Recipe_1GJXK8G_poses.sdf', '/opt/xchem-fragalysis-2/maxwin/CHIKV_HIPPO/hippo_prod/CHIKV_prod11c_recipes/Recipe_1GJXW46_poses.sdf']

>  <method>  (11) 
None

>  <submitter_email>  (11) 
None

>  <submitter_name>  (11) 
None

$$$$
LIQLVJPJJWUNTN-INIZCTEOSA-N
     RDKit          3D

 25 27  0  0  0  0  0  0  0  0999 V2000
   20.6864    2.9851   16.3410 C   0  0  0  0  0  0  0  0  0  0  0  0
   20.0100    1.9961   16.3476 C   0  0  0  0  0  0  0  0  0  0  0  0
   19.0556    0.8996   16.4822 C   0  0  0  0  0  0  0  0  0  0  0  0
   17.7862    1.5154   16.6164 O   0  0  0  0  0  0  0  0  0  0  0  0
   16.8539    0.7313   17.2341 C   0  0  0  0  0  0  0  0  0  0  0  0
   17.0296   -0.6158   17.1746 N   0  0  0  0  0  0  0  0  0  0  0  0
   16.1278   -1.3584   17.8483 C   0  0  0  0  0  0  0  0  0  0  0  0
   15.0704   -0.8259   18.5635 C   0  0  0  0  0  0  0  0  0  0  0  0
   14.9077    0.5539   18.5900 C   0  0  0  0  0  0  0  0  0  0  0  0
   15.8119    1.3628   17.9044 C   0  0  0  0  0  0  0  0  0  0  0  0
   15.7604    2.8221   18.1380 C   0  0  0  0  0  0  0  0  0  0  0  0
   15.5736    3.1987   19.2959 O   0  0  0  0  0  0  0  0  0  0  0  0
   15.9162    3.7469   17.1118 N   0  0  0  0  0  0  0  0  0  0  0  0
   15.9538    5.1638   17.4689 C   0  0  0  0  0  0  0  0  0  0  0  0
   15.5391    5.9317   16.2253 C   0  0  0  0  0  0  0  0  0  0  0  0
   14.6099    4.9324   15.5607 C   0  0  0  0  0  0  0  0  0  0  0  0
   15.3033    3.5652   15.8154 C   0  0  1  0  0  0  0  0  0  0  0  0
   16.2228    3.4036   14.6558 C   0  0  0  0  0  0  0  0  0  0  0  0
   15.6124    3.1459   13.4240 C   0  0  0  0  0  0  0  0  0  0  0  0
   16.1674    3.6928   12.3091 C   0  0  0  0  0  0  0  0  0  0  0  0
   17.3689    4.3392   12.5079 C   0  0  0  0  0  0  0  0  0  0  0  0
   18.0763    4.7001   11.4205 O   0  0  0  0  0  0  0  0  0  0  0  0
   18.7067    3.4911   11.0846 C   0  0  0  0  0  0  0  0  0  0  0  0
   18.0813    4.4526   13.6386 N   0  0  0  0  0  0  0  0  0  0  0  0
   17.4953    3.9439   14.7112 C   0  0  0  0  0  0  0  0  0  0  0  0
  1  2  3  0
  2  3  1  0
  3  4  1  0
  4  5  1  0
  5  6  2  0
  6  7  1  0
  7  8  2  0
  8  9  1  0
  9 10  2  0
 10 11  1  0
 11 12  2  0
 11 13  1  0
 13 14  1  0
 14 15  1  0
 15 16  1  0
 16 17  1  0
 17 18  1  6
 18 19  2  0
 19 20  1  0
 20 21  2  0
 21 22  1  0
 22 23  1  0
 21 24  1  0
 24 25  2  0
 10  5  1  0
 17 13  1  0
 25 18  1  0
M  END
>  <HIPPO ID>  (12) 
8430

>  <ref_url>  (12) 
None

>  <ref_pdb>  (12) 
c0300a

>  <inchikey>  (12) 
LIQLVJPJJWUNTN-INIZCTEOSA-N

>  <original SMILES>  (12) 
C#CCOc1ncccc1C(=O)N1CCC[C@H]1c1ccc(OC)nc1

>  <generation_date>  (12) 
None

>  <tags>  (12) 
[]

>  <ref_mols>  (12) 
c0522a,c1118a

>  <alias>  (12) 
None

>  <original ID>  (12) 
LIQLVJPJJWUNTN-INIZCTEOSA-N

>  <exports>  (12) 
['/opt/xchem-fragalysis-2/maxwin/CHIKV_HIPPO/hippo_prod/CHIKV_prod11c_recipes/Recipe_1GJWBFH_poses.sdf', '/opt/xchem-fragalysis-2/maxwin/CHIKV_HIPPO/hippo_prod/CHIKV_prod11c_recipes/Recipe_1GJXK8G_poses.sdf', '/opt/xchem-fragalysis-2/maxwin/CHIKV_HIPPO/hippo_prod/CHIKV_prod11c_recipes/Recipe_1GJXW46_poses.sdf']

>  <method>  (12) 
None

>  <submitter_email>  (12) 
None

>  <submitter_name>  (12) 
None

$$$$
WFNSHSCUFNWUKV-INIZCTEOSA-N
     RDKit          3D

 26 28  0  0  0  0  0  0  0  0999 V2000
   22.0260   -0.0969   15.5200 C   0  0  0  0  0  0  0  0  0  0  0  0
   21.6422    1.0132   16.3045 O   0  0  0  0  0  0  0  0  0  0  0  0
   20.3493    1.5306   16.0014 C   0  0  0  0  0  0  0  0  0  0  0  0
   19.2581    0.6530   16.5917 C   0  0  0  0  0  0  0  0  0  0  0  0
   18.0352    1.3824   16.5996 O   0  0  0  0  0  0  0  0  0  0  0  0
   17.0266    0.6806   17.2214 C   0  0  0  0  0  0  0  0  0  0  0  0
   17.1264   -0.6765   17.2347 N   0  0  0  0  0  0  0  0  0  0  0  0
   16.1598   -1.3458   17.8955 C   0  0  0  0  0  0  0  0  0  0  0  0
   15.1013   -0.7322   18.5372 C   0  0  0  0  0  0  0  0  0  0  0  0
   15.0115    0.6538   18.4961 C   0  0  0  0  0  0  0  0  0  0  0  0
   15.9858    1.3854   17.8149 C   0  0  0  0  0  0  0  0  0  0  0  0
   15.9553    2.8587   17.9204 C   0  0  0  0  0  0  0  0  0  0  0  0
   15.7227    3.3458   19.0269 O   0  0  0  0  0  0  0  0  0  0  0  0
   16.1615    3.6656   16.8011 N   0  0  0  0  0  0  0  0  0  0  0  0
   16.1498    5.1131   17.0045 C   0  0  0  0  0  0  0  0  0  0  0  0
   15.6645    5.7238   15.7010 C   0  0  0  0  0  0  0  0  0  0  0  0
   14.7686    4.6214   15.1684 C   0  0  0  0  0  0  0  0  0  0  0  0
   15.5368    3.3243   15.5416 C   0  0  1  0  0  0  0  0  0  0  0  0
   16.4461    3.0541   14.3784 C   0  0  0  0  0  0  0  0  0  0  0  0
   15.7952    2.6583   13.2125 C   0  0  0  0  0  0  0  0  0  0  0  0
   16.2428    3.1442   12.0157 C   0  0  0  0  0  0  0  0  0  0  0  0
   17.3536    3.9526   12.0751 C   0  0  0  0  0  0  0  0  0  0  0  0
   17.3701    5.0142   11.2143 O   0  0  0  0  0  0  0  0  0  0  0  0
   16.2284    5.8385   11.5195 C   0  0  0  0  0  0  0  0  0  0  0  0
   18.1844    4.0985   13.1223 N   0  0  0  0  0  0  0  0  0  0  0  0
   17.7097    3.6139   14.2809 C   0  0  0  0  0  0  0  0  0  0  0  0
  1  2  1  0
  2  3  1  0
  3  4  1  0
  4  5  1  0
  5  6  1  0
  6  7  2  0
  7  8  1  0
  8  9  2  0
  9 10  1  0
 10 11  2  0
 11 12  1  0
 12 13  2  0
 12 14  1  0
 14 15  1  0
 15 16  1  0
 16 17  1  0
 17 18  1  0
 18 19  1  6
 19 20  2  0
 20 21  1  0
 21 22  2  0
 22 23  1  0
 23 24  1  0
 22 25  1  0
 25 26  2  0
 11  6  1  0
 18 14  1  0
 26 19  1  0
M  END
>  <HIPPO ID>  (13) 
8799

>  <ref_url>  (13) 
None

>  <ref_pdb>  (13) 
c0300a

>  <inchikey>  (13) 
WFNSHSCUFNWUKV-INIZCTEOSA-N

>  <original SMILES>  (13) 
COCCOc1ncccc1C(=O)N1CCC[C@H]1c1ccc(OC)nc1

>  <generation_date>  (13) 
None

>  <tags>  (13) 
[]

>  <ref_mols>  (13) 
c0522a,c1118a

>  <alias>  (13) 
None

>  <original ID>  (13) 
WFNSHSCUFNWUKV-INIZCTEOSA-N

>  <exports>  (13) 
['/opt/xchem-fragalysis-2/maxwin/CHIKV_HIPPO/hippo_prod/CHIKV_prod11c_recipes/Recipe_1GJWBFH_poses.sdf', '/opt/xchem-fragalysis-2/maxwin/CHIKV_HIPPO/hippo_prod/CHIKV_prod11c_recipes/Recipe_1GJXK8G_poses.sdf', '/opt/xchem-fragalysis-2/maxwin/CHIKV_HIPPO/hippo_prod/CHIKV_prod11c_recipes/Recipe_1GJXW46_poses.sdf']

>  <method>  (13) 
None

>  <submitter_email>  (13) 
None

>  <submitter_name>  (13) 
None

$$$$
HBQFMVQDSMREEH-INIZCTEOSA-N
     RDKit          3D

 26 28  0  0  0  0  0  0  0  0999 V2000
   22.0356    0.4439   15.9307 C   0  0  0  0  0  0  0  0  0  0  0  0
   21.4451    1.5423   16.5915 O   0  0  0  0  0  0  0  0  0  0  0  0
   20.1604    1.8887   16.0892 C   0  0  0  0  0  0  0  0  0  0  0  0
   19.1018    0.9006   16.5445 C   0  0  0  0  0  0  0  0  0  0  0  0
   17.8193    1.4753   16.3026 O   0  0  0  0  0  0  0  0  0  0  0  0
   16.8310    0.7672   16.9423 C   0  0  0  0  0  0  0  0  0  0  0  0
   17.0236   -0.5772   17.0652 N   0  0  0  0  0  0  0  0  0  0  0  0
   16.1123   -1.2503   17.7951 C   0  0  0  0  0  0  0  0  0  0  0  0
   15.0293   -0.6502   18.4051 C   0  0  0  0  0  0  0  0  0  0  0  0
   14.8429    0.7188   18.2387 C   0  0  0  0  0  0  0  0  0  0  0  0
   15.7414    1.4552   17.4623 C   0  0  0  0  0  0  0  0  0  0  0  0
   15.6317    2.9295   17.4784 C   0  0  0  0  0  0  0  0  0  0  0  0
   15.5031    3.4412   18.5950 O   0  0  0  0  0  0  0  0  0  0  0  0
   15.6633    3.7283   16.3240 N   0  0  0  0  0  0  0  0  0  0  0  0
   15.8354    5.1741   16.5234 C   0  0  0  0  0  0  0  0  0  0  0  0
   14.6481    5.9803   16.0249 C   0  0  0  0  0  0  0  0  0  0  0  0
   14.3736    5.6645   14.5683 C   0  0  0  0  0  0  0  0  0  0  0  0
   14.1246    4.1736   14.4180 C   0  0  0  0  0  0  0  0  0  0  0  0
   15.2758    3.2785   14.9698 C   0  0  1  0  0  0  0  0  0  0  0  0
   16.3519    3.3408   13.9296 C   0  0  0  0  0  0  0  0  0  0  0  0
   16.0013    3.1391   12.5856 C   0  0  0  0  0  0  0  0  0  0  0  0
   16.8770    3.4823   11.5964 C   0  0  0  0  0  0  0  0  0  0  0  0
   18.1089    3.8933   12.0193 C   0  0  0  0  0  0  0  0  0  0  0  0
   19.0296    4.2305   11.0991 O   0  0  0  0  0  0  0  0  0  0  0  0
   18.5337    4.0304   13.2717 N   0  0  0  0  0  0  0  0  0  0  0  0
   17.6450    3.7235   14.2166 C   0  0  0  0  0  0  0  0  0  0  0  0
  1  2  1  0
  2  3  1  0
  3  4  1  0
  4  5  1  0
  5  6  1  0
  6  7  2  0
  7  8  1  0
  8  9  2  0
  9 10  1  0
 10 11  2  0
 11 12  1  0
 12 13  2  0
 12 14  1  0
 14 15  1  0
 15 16  1  0
 16 17  1  0
 17 18  1  0
 18 19  1  0
 19 20  1  6
 20 21  2  0
 21 22  1  0
 22 23  2  0
 23 24  1  0
 23 25  1  0
 25 26  2  0
 11  6  1  0
 19 14  1  0
 26 20  1  0
M  END
>  <HIPPO ID>  (14) 
8806

>  <ref_url>  (14) 
None

>  <ref_pdb>  (14) 
c0300a

>  <inchikey>  (14) 
HBQFMVQDSMREEH-INIZCTEOSA-N

>  <original SMILES>  (14) 
COCCOc1ncccc1C(=O)N1CCCC[C@H]1c1ccc(O)nc1

>  <generation_date>  (14) 
None

>  <tags>  (14) 
[]

>  <ref_mols>  (14) 
c0522a,c1118a

>  <alias>  (14) 
None

>  <original ID>  (14) 
HBQFMVQDSMREEH-INIZCTEOSA-N

>  <exports>  (14) 
['/opt/xchem-fragalysis-2/maxwin/CHIKV_HIPPO/hippo_prod/CHIKV_prod11c_recipes/Recipe_1GJWBFH_poses.sdf', '/opt/xchem-fragalysis-2/maxwin/CHIKV_HIPPO/hippo_prod/CHIKV_prod11c_recipes/Recipe_1GJXK8G_poses.sdf', '/opt/xchem-fragalysis-2/maxwin/CHIKV_HIPPO/hippo_prod/CHIKV_prod11c_recipes/Recipe_1GJXW46_poses.sdf']

>  <method>  (14) 
None

>  <submitter_email>  (14) 
None

>  <submitter_name>  (14) 
None

$$$$
HBQFMVQDSMREEH-INIZCTEOSA-N
     RDKit          3D

 26 28  0  0  0  0  0  0  0  0999 V2000
   19.6361    1.9674   14.5271 C   0  0  0  0  0  0  0  0  0  0  0  0
   20.6585    1.1551   15.0700 O   0  0  0  0  0  0  0  0  0  0  0  0
   20.6453    1.2519   16.4973 C   0  0  0  0  0  0  0  0  0  0  0  0
   19.4019    0.5869   17.0725 C   0  0  0  0  0  0  0  0  0  0  0  0
   18.2550    1.4451   16.9161 O   0  0  0  0  0  0  0  0  0  0  0  0
   17.0838    0.7932   17.2362 C   0  0  0  0  0  0  0  0  0  0  0  0
   17.1613   -0.5608   17.3832 N   0  0  0  0  0  0  0  0  0  0  0  0
   16.0874   -1.1883   17.8852 C   0  0  0  0  0  0  0  0  0  0  0  0
   14.9414   -0.5241   18.2534 C   0  0  0  0  0  0  0  0  0  0  0  0
   14.8599    0.8512   18.0464 C   0  0  0  0  0  0  0  0  0  0  0  0
   15.9299    1.5353   17.4670 C   0  0  0  0  0  0  0  0  0  0  0  0
   15.9077    3.0083   17.5120 C   0  0  0  0  0  0  0  0  0  0  0  0
   16.1692    3.4846   18.6204 O   0  0  0  0  0  0  0  0  0  0  0  0
   15.5234    3.8418   16.4385 N   0  0  0  0  0  0  0  0  0  0  0  0
   15.5611    5.2879   16.7104 C   0  0  0  0  0  0  0  0  0  0  0  0
   14.4305    6.0799   16.0710 C   0  0  0  0  0  0  0  0  0  0  0  0
   14.2852    5.7680   14.5986 C   0  0  0  0  0  0  0  0  0  0  0  0
   14.0681    4.2771   14.4337 C   0  0  0  0  0  0  0  0  0  0  0  0
   15.2010    3.4121   15.0618 C   0  0  1  0  0  0  0  0  0  0  0  0
   16.2991    3.5202   14.0459 C   0  0  0  0  0  0  0  0  0  0  0  0
   16.0067    3.1101   12.7358 C   0  0  0  0  0  0  0  0  0  0  0  0
   16.8481    3.4370   11.7101 C   0  0  0  0  0  0  0  0  0  0  0  0
   18.0192    4.0363   12.0732 C   0  0  0  0  0  0  0  0  0  0  0  0
   18.9838    4.2031   11.1458 O   0  0  0  0  0  0  0  0  0  0  0  0
   18.3648    4.4550   13.2878 N   0  0  0  0  0  0  0  0  0  0  0  0
   17.4898    4.1779   14.2654 C   0  0  0  0  0  0  0  0  0  0  0  0
  1  2  1  0
  2  3  1  0
  3  4  1  0
  4  5  1  0
  5  6  1  0
  6  7  2  0
  7  8  1  0
  8  9  2  0
  9 10  1  0
 10 11  2  0
 11 12  1  0
 12 13  2  0
 12 14  1  0
 14 15  1  0
 15 16  1  0
 16 17  1  0
 17 18  1  0
 18 19  1  0
 19 20  1  6
 20 21  2  0
 21 22  1  0
 22 23  2  0
 23 24  1  0
 23 25  1  0
 25 26  2  0
 11  6  1  0
 19 14  1  0
 26 20  1  0
M  END
>  <HIPPO ID>  (15) 
8807

>  <ref_url>  (15) 
None

>  <ref_pdb>  (15) 
c0300a

>  <inchikey>  (15) 
HBQFMVQDSMREEH-INIZCTEOSA-N

>  <original SMILES>  (15) 
COCCOc1ncccc1C(=O)N1CCCC[C@H]1c1ccc(O)nc1

>  <generation_date>  (15) 
None

>  <tags>  (15) 
[]

>  <ref_mols>  (15) 
c0522a,c1118a

>  <alias>  (15) 
None

>  <original ID>  (15) 
HBQFMVQDSMREEH-INIZCTEOSA-N

>  <exports>  (15) 
['/opt/xchem-fragalysis-2/maxwin/CHIKV_HIPPO/hippo_prod/CHIKV_prod11c_recipes/Recipe_1GJWBFH_poses.sdf', '/opt/xchem-fragalysis-2/maxwin/CHIKV_HIPPO/hippo_prod/CHIKV_prod11c_recipes/Recipe_1GJXK8G_poses.sdf', '/opt/xchem-fragalysis-2/maxwin/CHIKV_HIPPO/hippo_prod/CHIKV_prod11c_recipes/Recipe_1GJXW46_poses.sdf']

>  <method>  (15) 
None

>  <submitter_email>  (15) 
None

>  <submitter_name>  (15) 
None

$$$$
RNWPOBYYMPIYPG-SECBINFHSA-N
     RDKit          3D

 25 26  0  0  0  0  0  0  0  0999 V2000
    8.7386    5.1163   14.3895 C   0  0  0  0  0  0  0  0  0  0  0  0
    9.5378    6.2762   14.6068 O   0  0  0  0  0  0  0  0  0  0  0  0
   10.7680    6.2543   14.0958 C   0  0  0  0  0  0  0  0  0  0  0  0
   12.0687    6.9147   14.9950 S   0  0  0  0  0  0  0  0  0  0  0  0
   13.2267    6.4120   13.8347 C   0  0  0  0  0  0  0  0  0  0  0  0
   14.6969    6.6563   14.0427 C   0  0  0  0  0  0  0  0  0  0  0  0
   15.0177    8.0342   13.6799 N   0  0  0  0  0  0  0  0  0  0  0  0
   15.5803    8.8988   14.6995 C   0  0  0  0  0  0  0  0  0  0  0  0
   16.6174    8.3887   15.7006 C   0  0  1  0  0  0  0  0  0  0  0  0
   17.4353    7.3694   15.1420 O   0  0  0  0  0  0  0  0  0  0  0  0
   17.5178    9.5484   16.1690 C   0  0  0  0  0  0  0  0  0  0  0  0
   18.4927    9.8353   15.1738 O   0  0  0  0  0  0  0  0  0  0  0  0
   14.9109    8.4021   12.3340 C   0  0  0  0  0  0  0  0  0  0  0  0
   14.8407    7.5077   11.4859 O   0  0  0  0  0  0  0  0  0  0  0  0
   14.8493    9.8076   11.9095 C   0  0  0  0  0  0  0  0  0  0  0  0
   14.6186   11.0355   12.5195 C   0  0  0  0  0  0  0  0  0  0  0  0
   14.4257   11.6885   14.2802 Br  0  0  0  0  0  0  0  0  0  0  0  0
   14.3495   11.9391   11.4811 C   0  0  0  0  0  0  0  0  0  0  0  0
   13.7384   13.2600   11.6242 C   0  0  0  0  0  0  0  0  0  0  0  0
   14.6112   11.4281   10.2849 N   0  0  0  0  0  0  0  0  0  0  0  0
   14.9055   10.1422   10.5522 N   0  0  0  0  0  0  0  0  0  0  0  0
   15.1650    9.2851    9.4157 C   0  0  0  0  0  0  0  0  0  0  0  0
   12.6210    5.8356   12.7370 C   0  0  0  0  0  0  0  0  0  0  0  0
   11.2210    5.8278   12.8761 C   0  0  0  0  0  0  0  0  0  0  0  0
   10.1018    5.3181   11.4820 Br  0  0  0  0  0  0  0  0  0  0  0  0
  1  2  1  0
  2  3  1  0
  3  4  1  0
  4  5  1  0
  5  6  1  0
  6  7  1  0
  7  8  1  0
  8  9  1  0
  9 10  1  6
  9 11  1  0
 11 12  1  0
  7 13  1  0
 13 14  2  0
 13 15  1  0
 15 16  2  0
 16 17  1  0
 16 18  1  0
 18 19  1  0
 18 20  2  0
 20 21  1  0
 21 22  1  0
  5 23  2  0
 23 24  1  0
 24 25  1  0
 24  3  2  0
 21 15  1  0
M  END
>  <HIPPO ID>  (16) 
11206

>  <ref_url>  (16) 
None

>  <ref_pdb>  (16) 
c0300a

>  <inchikey>  (16) 
RNWPOBYYMPIYPG-SECBINFHSA-N

>  <original SMILES>  (16) 
COc1sc(CN(C[C@@H](O)CO)C(=O)c2c(Br)c(C)nn2C)cc1Br

>  <generation_date>  (16) 
None

>  <tags>  (16) 
[]

>  <ref_mols>  (16) 
c0892a,c1151a

>  <alias>  (16) 
None

>  <original ID>  (16) 
RNWPOBYYMPIYPG-SECBINFHSA-N

>  <exports>  (16) 
['/opt/xchem-fragalysis-2/maxwin/CHIKV_HIPPO/hippo_prod/CHIKV_prod11c_recipes/Recipe_1GJWBFH_poses.sdf', '/opt/xchem-fragalysis-2/maxwin/CHIKV_HIPPO/hippo_prod/CHIKV_prod11c_recipes/Recipe_1GJXK8G_poses.sdf', '/opt/xchem-fragalysis-2/maxwin/CHIKV_HIPPO/hippo_prod/CHIKV_prod11c_recipes/Recipe_1GJXW46_poses.sdf']

>  <method>  (16) 
None

>  <submitter_email>  (16) 
None

>  <submitter_name>  (16) 
None

$$$$
XCYKKTHXRDYWAK-QMMMGPOBSA-N
     RDKit          3D

 26 27  0  0  0  0  0  0  0  0999 V2000
    8.6282    5.4645   14.4000 C   0  0  0  0  0  0  0  0  0  0  0  0
    9.4768    6.6064   14.3816 O   0  0  0  0  0  0  0  0  0  0  0  0
   10.7323    6.3666   14.0111 C   0  0  0  0  0  0  0  0  0  0  0  0
   12.0300    6.9022   14.9815 S   0  0  0  0  0  0  0  0  0  0  0  0
   13.1964    6.2982   13.8758 C   0  0  0  0  0  0  0  0  0  0  0  0
   14.6557    6.5595   14.0841 C   0  0  0  0  0  0  0  0  0  0  0  0
   14.8840    7.9704   13.7720 N   0  0  0  0  0  0  0  0  0  0  0  0
   15.2392    8.8112   14.9323 C   0  0  0  0  0  0  0  0  0  0  0  0
   16.7542    8.8567   15.1781 C   0  0  2  0  0  0  0  0  0  0  0  0
   17.0983    7.9374   16.2152 O   0  0  0  0  0  0  0  0  0  0  0  0
   17.2719   10.2617   15.5155 C   0  0  0  0  0  0  0  0  0  0  0  0
   16.8758   11.2126   14.5398 O   0  0  0  0  0  0  0  0  0  0  0  0
   14.9160    8.3028   12.4093 C   0  0  0  0  0  0  0  0  0  0  0  0
   14.9719    7.3991   11.5716 O   0  0  0  0  0  0  0  0  0  0  0  0
   14.8549    9.6859   11.9516 C   0  0  0  0  0  0  0  0  0  0  0  0
   14.5824   10.8789   12.5969 C   0  0  0  0  0  0  0  0  0  0  0  0
   14.4540   11.8260   11.5853 C   0  0  0  0  0  0  0  0  0  0  0  0
   13.9580   13.1469   11.7202 N   0  0  0  0  0  4  0  0  0  0  0  0
   13.0165   13.4303   10.9773 O   0  0  0  0  0  0  0  0  0  0  0  0
   14.4713   13.8407   12.6114 O   0  0  0  0  0  1  0  0  0  0  0  0
   14.7214   11.3517   10.3678 N   0  0  0  0  0  0  0  0  0  0  0  0
   14.9346   10.0404   10.6036 N   0  0  0  0  0  0  0  0  0  0  0  0
   15.1381    9.1864    9.4538 C   0  0  0  0  0  0  0  0  0  0  0  0
   12.6040    5.6837   12.7920 C   0  0  0  0  0  0  0  0  0  0  0  0
   11.2042    5.7998   12.8590 C   0  0  0  0  0  0  0  0  0  0  0  0
   10.1002    5.3296   11.4388 Br  0  0  0  0  0  0  0  0  0  0  0  0
  1  2  1  0
  2  3  1  0
  3  4  1  0
  4  5  1  0
  5  6  1  0
  6  7  1  0
  7  8  1  0
  8  9  1  0
  9 10  1  1
  9 11  1  0
 11 12  1  0
  7 13  1  0
 13 14  2  0
 13 15  1  0
 15 16  2  0
 16 17  1  0
 17 18  1  0
 18 19  2  0
 18 20  1  0
 17 21  2  0
 21 22  1  0
 22 23  1  0
  5 24  2  0
 24 25  1  0
 25 26  1  0
 25  3  2  0
 22 15  1  0
M  CHG  2  18   1  20  -1
M  END
>  <HIPPO ID>  (17) 
11241

>  <ref_url>  (17) 
None

>  <ref_pdb>  (17) 
c0300a

>  <inchikey>  (17) 
XCYKKTHXRDYWAK-QMMMGPOBSA-N

>  <original SMILES>  (17) 
COc1sc(CN(C[C@H](O)CO)C(=O)c2cc([N+](=O)[O-])nn2C)cc1Br

>  <generation_date>  (17) 
None

>  <tags>  (17) 
[]

>  <ref_mols>  (17) 
c0892a,c1151a

>  <alias>  (17) 
None

>  <original ID>  (17) 
XCYKKTHXRDYWAK-QMMMGPOBSA-N

>  <exports>  (17) 
['/opt/xchem-fragalysis-2/maxwin/CHIKV_HIPPO/hippo_prod/CHIKV_prod11c_recipes/Recipe_1GJWBFH_poses.sdf', '/opt/xchem-fragalysis-2/maxwin/CHIKV_HIPPO/hippo_prod/CHIKV_prod11c_recipes/Recipe_1GJXK8G_poses.sdf', '/opt/xchem-fragalysis-2/maxwin/CHIKV_HIPPO/hippo_prod/CHIKV_prod11c_recipes/Recipe_1GJXW46_poses.sdf']

>  <method>  (17) 
None

>  <submitter_email>  (17) 
None

>  <submitter_name>  (17) 
None

$$$$
XCYKKTHXRDYWAK-MRVPVSSYSA-N
     RDKit          3D

 26 27  0  0  0  0  0  0  0  0999 V2000
    8.9871    7.2328   14.4562 C   0  0  0  0  0  0  0  0  0  0  0  0
    9.6805    6.0046   14.5988 O   0  0  0  0  0  0  0  0  0  0  0  0
   10.9055    6.0362   14.0881 C   0  0  0  0  0  0  0  0  0  0  0  0
   12.2476    6.5329   14.9957 S   0  0  0  0  0  0  0  0  0  0  0  0
   13.3343    6.1946   13.7166 C   0  0  0  0  0  0  0  0  0  0  0  0
   14.7958    6.4836   13.8740 C   0  0  0  0  0  0  0  0  0  0  0  0
   15.0148    7.9016   13.5791 N   0  0  0  0  0  0  0  0  0  0  0  0
   15.6903    8.7086   14.6141 C   0  0  0  0  0  0  0  0  0  0  0  0
   14.7773    9.2778   15.7142 C   0  0  1  0  0  0  0  0  0  0  0  0
   13.4578    9.4642   15.2006 O   0  0  0  0  0  0  0  0  0  0  0  0
   14.7535    8.4247   16.9867 C   0  0  0  0  0  0  0  0  0  0  0  0
   13.9073    9.0142   17.9712 O   0  0  0  0  0  0  0  0  0  0  0  0
   14.9280    8.2573   12.2220 C   0  0  0  0  0  0  0  0  0  0  0  0
   14.8856    7.3803   11.3599 O   0  0  0  0  0  0  0  0  0  0  0  0
   14.8714    9.6556   11.8284 C   0  0  0  0  0  0  0  0  0  0  0  0
   14.6385   10.8154   12.5486 C   0  0  0  0  0  0  0  0  0  0  0  0
   14.4654   11.8054   11.5827 C   0  0  0  0  0  0  0  0  0  0  0  0
   13.9771   13.1232   11.7740 N   0  0  0  0  0  4  0  0  0  0  0  0
   13.0402   13.4423   11.0416 O   0  0  0  0  0  0  0  0  0  0  0  0
   14.5012   13.7797   12.6870 O   0  0  0  0  0  1  0  0  0  0  0  0
   14.7098   11.3877   10.3382 N   0  0  0  0  0  0  0  0  0  0  0  0
   14.9317   10.0702   10.5045 N   0  0  0  0  0  0  0  0  0  0  0  0
   15.1620    9.2735    9.3213 C   0  0  0  0  0  0  0  0  0  0  0  0
   12.6681    5.7169   12.6028 C   0  0  0  0  0  0  0  0  0  0  0  0
   11.2781    5.6966   12.8209 C   0  0  0  0  0  0  0  0  0  0  0  0
   10.0170    5.3052   11.5102 Br  0  0  0  0  0  0  0  0  0  0  0  0
  1  2  1  0
  2  3  1  0
  3  4  1  0
  4  5  1  0
  5  6  1  0
  6  7  1  0
  7  8  1  0
  8  9  1  0
  9 10  1  6
  9 11  1  0
 11 12  1  0
  7 13  1  0
 13 14  2  0
 13 15  1  0
 15 16  2  0
 16 17  1  0
 17 18  1  0
 18 19  2  0
 18 20  1  0
 17 21  2  0
 21 22  1  0
 22 23  1  0
  5 24  2  0
 24 25  1  0
 25 26  1  0
 25  3  2  0
 22 15  1  0
M  CHG  2  18   1  20  -1
M  END
>  <HIPPO ID>  (18) 
11242

>  <ref_url>  (18) 
None

>  <ref_pdb>  (18) 
c0300a

>  <inchikey>  (18) 
XCYKKTHXRDYWAK-MRVPVSSYSA-N

>  <original SMILES>  (18) 
COc1sc(CN(C[C@@H](O)CO)C(=O)c2cc([N+](=O)[O-])nn2C)cc1Br

>  <generation_date>  (18) 
None

>  <tags>  (18) 
[]

>  <ref_mols>  (18) 
c0892a,c1151a

>  <alias>  (18) 
None

>  <original ID>  (18) 
XCYKKTHXRDYWAK-MRVPVSSYSA-N

>  <exports>  (18) 
['/opt/xchem-fragalysis-2/maxwin/CHIKV_HIPPO/hippo_prod/CHIKV_prod11c_recipes/Recipe_1GJWBFH_poses.sdf', '/opt/xchem-fragalysis-2/maxwin/CHIKV_HIPPO/hippo_prod/CHIKV_prod11c_recipes/Recipe_1GJXK8G_poses.sdf', '/opt/xchem-fragalysis-2/maxwin/CHIKV_HIPPO/hippo_prod/CHIKV_prod11c_recipes/Recipe_1GJXW46_poses.sdf']

>  <method>  (18) 
None

>  <submitter_email>  (18) 
None

>  <submitter_name>  (18) 
None

$$$$
SDGUZSVJRIKLRW-QMMMGPOBSA-N
     RDKit          3D

 26 27  0  0  0  0  0  0  0  0999 V2000
    8.6641    5.1127   14.3786 C   0  0  0  0  0  0  0  0  0  0  0  0
    9.4927    6.2615   14.5292 O   0  0  0  0  0  0  0  0  0  0  0  0
   10.7180    6.1664   14.0177 C   0  0  0  0  0  0  0  0  0  0  0  0
   12.0576    6.7296   14.9167 S   0  0  0  0  0  0  0  0  0  0  0  0
   13.1696    6.2150   13.7183 C   0  0  0  0  0  0  0  0  0  0  0  0
   14.6394    6.4241   13.8931 C   0  0  0  0  0  0  0  0  0  0  0  0
   14.9366    7.8261   13.5996 N   0  0  0  0  0  0  0  0  0  0  0  0
   15.9204    8.4682   14.4894 C   0  0  0  0  0  0  0  0  0  0  0  0
   15.5338    8.7148   15.9600 C   0  0  2  0  0  0  0  0  0  0  0  0
   15.2673    7.5010   16.6519 O   0  0  0  0  0  0  0  0  0  0  0  0
   14.3574    9.6580   16.1160 C   0  0  0  0  0  0  0  0  0  0  0  0
   14.6975   11.0034   15.7794 O   0  0  0  0  0  0  0  0  0  0  0  0
   14.9203    8.1347   12.2184 C   0  0  0  0  0  0  0  0  0  0  0  0
   14.9131    7.2509   11.3642 O   0  0  0  0  0  0  0  0  0  0  0  0
   14.8680    9.5304   11.8309 C   0  0  0  0  0  0  0  0  0  0  0  0
   14.6035   10.6571   12.5797 C   0  0  0  0  0  0  0  0  0  0  0  0
   14.4673   11.7148   11.6720 C   0  0  0  0  0  0  0  0  0  0  0  0
   13.9443   13.0304   11.9594 C   0  0  0  0  0  0  0  0  0  0  0  0
   13.1813   13.5784   11.1895 O   0  0  0  0  0  0  0  0  0  0  0  0
   14.3111   13.5536   13.1601 O   0  0  0  0  0  0  0  0  0  0  0  0
   14.7692   11.3208   10.4288 N   0  0  0  0  0  0  0  0  0  0  0  0
   14.9434    9.9924   10.5344 N   0  0  0  0  0  0  0  0  0  0  0  0
   15.1419    9.2356    9.3219 C   0  0  0  0  0  0  0  0  0  0  0  0
   12.5261    5.6867   12.6200 C   0  0  0  0  0  0  0  0  0  0  0  0
   11.1314    5.7397   12.7846 C   0  0  0  0  0  0  0  0  0  0  0  0
    9.9683    5.3220   11.3972 Br  0  0  0  0  0  0  0  0  0  0  0  0
  1  2  1  0
  2  3  1  0
  3  4  1  0
  4  5  1  0
  5  6  1  0
  6  7  1  0
  7  8  1  0
  8  9  1  0
  9 10  1  6
  9 11  1  0
 11 12  1  0
  7 13  1  0
 13 14  2  0
 13 15  1  0
 15 16  2  0
 16 17  1  0
 17 18  1  0
 18 19  2  0
 18 20  1  0
 17 21  2  0
 21 22  1  0
 22 23  1  0
  5 24  2  0
 24 25  1  0
 25 26  1  0
 25  3  2  0
 22 15  1  0
M  END
>  <HIPPO ID>  (19) 
11258

>  <ref_url>  (19) 
None

>  <ref_pdb>  (19) 
c0300a

>  <inchikey>  (19) 
SDGUZSVJRIKLRW-QMMMGPOBSA-N

>  <original SMILES>  (19) 
COc1sc(CN(C[C@H](O)CO)C(=O)c2cc(C(=O)O)nn2C)cc1Br

>  <generation_date>  (19) 
None

>  <tags>  (19) 
[]

>  <ref_mols>  (19) 
c0892a,c1151a

>  <alias>  (19) 
None

>  <original ID>  (19) 
SDGUZSVJRIKLRW-QMMMGPOBSA-N

>  <exports>  (19) 
['/opt/xchem-fragalysis-2/maxwin/CHIKV_HIPPO/hippo_prod/CHIKV_prod11c_recipes/Recipe_1GJWBFH_poses.sdf', '/opt/xchem-fragalysis-2/maxwin/CHIKV_HIPPO/hippo_prod/CHIKV_prod11c_recipes/Recipe_1GJXK8G_poses.sdf', '/opt/xchem-fragalysis-2/maxwin/CHIKV_HIPPO/hippo_prod/CHIKV_prod11c_recipes/Recipe_1GJXW46_poses.sdf']

>  <method>  (19) 
None

>  <submitter_email>  (19) 
None

>  <submitter_name>  (19) 
None

$$$$
SDGUZSVJRIKLRW-MRVPVSSYSA-N
     RDKit          3D

 26 27  0  0  0  0  0  0  0  0999 V2000
    8.6211    5.1307   14.3158 C   0  0  0  0  0  0  0  0  0  0  0  0
    9.4322    6.2943   14.4407 O   0  0  0  0  0  0  0  0  0  0  0  0
   10.6757    6.1823   13.9803 C   0  0  0  0  0  0  0  0  0  0  0  0
   11.9803    6.7231   14.9274 S   0  0  0  0  0  0  0  0  0  0  0  0
   13.1397    6.2731   13.7501 C   0  0  0  0  0  0  0  0  0  0  0  0
   14.6000    6.5297   13.9673 C   0  0  0  0  0  0  0  0  0  0  0  0
   14.8931    7.9153   13.5962 N   0  0  0  0  0  0  0  0  0  0  0  0
   15.4179    8.7874   14.6552 C   0  0  0  0  0  0  0  0  0  0  0  0
   14.3466    9.6347   15.3514 C   0  0  1  0  0  0  0  0  0  0  0  0
   13.6743    8.8699   16.3497 O   0  0  0  0  0  0  0  0  0  0  0  0
   14.9830   10.8716   16.0187 C   0  0  0  0  0  0  0  0  0  0  0  0
   14.2401   12.0294   15.6397 O   0  0  0  0  0  0  0  0  0  0  0  0
   14.9138    8.2087   12.2228 C   0  0  0  0  0  0  0  0  0  0  0  0
   14.9370    7.2843   11.4093 O   0  0  0  0  0  0  0  0  0  0  0  0
   14.8787    9.5888   11.7518 C   0  0  0  0  0  0  0  0  0  0  0  0
   14.8064   10.8104   12.3905 C   0  0  0  0  0  0  0  0  0  0  0  0
   14.4880   11.7553   11.4115 C   0  0  0  0  0  0  0  0  0  0  0  0
   14.0538   13.1071   11.6513 C   0  0  0  0  0  0  0  0  0  0  0  0
   14.5170   13.8544   12.5017 O   0  0  0  0  0  0  0  0  0  0  0  0
   13.1058   13.4655   10.7683 O   0  0  0  0  0  0  0  0  0  0  0  0
   14.6252   11.2392   10.1839 N   0  0  0  0  0  0  0  0  0  0  0  0
   14.8381    9.9302   10.4106 N   0  0  0  0  0  0  0  0  0  0  0  0
   14.9023    9.0575    9.2656 C   0  0  0  0  0  0  0  0  0  0  0  0
   12.5336    5.7288   12.6363 C   0  0  0  0  0  0  0  0  0  0  0  0
   11.1315    5.7534   12.7649 C   0  0  0  0  0  0  0  0  0  0  0  0
    9.9971    5.3244   11.3600 Br  0  0  0  0  0  0  0  0  0  0  0  0
  1  2  1  0
  2  3  1  0
  3  4  1  0
  4  5  1  0
  5  6  1  0
  6  7  1  0
  7  8  1  0
  8  9  1  0
  9 10  1  1
  9 11  1  0
 11 12  1  0
  7 13  1  0
 13 14  2  0
 13 15  1  0
 15 16  2  0
 16 17  1  0
 17 18  1  0
 18 19  2  0
 18 20  1  0
 17 21  2  0
 21 22  1  0
 22 23  1  0
  5 24  2  0
 24 25  1  0
 25 26  1  0
 25  3  2  0
 22 15  1  0
M  END
>  <HIPPO ID>  (20) 
11259

>  <ref_url>  (20) 
None

>  <ref_pdb>  (20) 
c0300a

>  <inchikey>  (20) 
SDGUZSVJRIKLRW-MRVPVSSYSA-N

>  <original SMILES>  (20) 
COc1sc(CN(C[C@@H](O)CO)C(=O)c2cc(C(=O)O)nn2C)cc1Br

>  <generation_date>  (20) 
None

>  <tags>  (20) 
[]

>  <ref_mols>  (20) 
c0892a,c1151a

>  <alias>  (20) 
None

>  <original ID>  (20) 
SDGUZSVJRIKLRW-MRVPVSSYSA-N

>  <exports>  (20) 
['/opt/xchem-fragalysis-2/maxwin/CHIKV_HIPPO/hippo_prod/CHIKV_prod11c_recipes/Recipe_1GJWBFH_poses.sdf', '/opt/xchem-fragalysis-2/maxwin/CHIKV_HIPPO/hippo_prod/CHIKV_prod11c_recipes/Recipe_1GJXK8G_poses.sdf', '/opt/xchem-fragalysis-2/maxwin/CHIKV_HIPPO/hippo_prod/CHIKV_prod11c_recipes/Recipe_1GJXW46_poses.sdf']

>  <method>  (20) 
None

>  <submitter_email>  (20) 
None

>  <submitter_name>  (20) 
None

$$$$
OYUPIDAWSKPWNF-UHFFFAOYSA-N
     RDKit          3D

 22 23  0  0  0  0  0  0  0  0999 V2000
   23.7066   14.1986   11.6419 N   0  0  0  0  0  0  0  0  0  0  0  0
   22.9166   13.6165   10.7052 C   0  0  0  0  0  0  0  0  0  0  0  0
   23.2947   13.3455    9.5766 O   0  0  0  0  0  0  0  0  0  0  0  0
   21.5447   13.3066   11.1225 C   0  0  0  0  0  0  0  0  0  0  0  0
   21.0155   12.1447   10.6199 C   0  0  0  0  0  0  0  0  0  0  0  0
   19.6739   11.8738   10.8321 C   0  0  0  0  0  0  0  0  0  0  0  0
   19.1310   10.5127   10.0192 Cl  0  0  0  0  0  0  0  0  0  0  0  0
   18.8200   12.6860   11.5831 C   0  0  0  0  0  0  0  0  0  0  0  0
   17.3996   12.2467   11.8652 C   0  0  0  0  0  0  0  0  0  0  0  0
   16.8607   12.6331   12.8893 O   0  0  0  0  0  0  0  0  0  0  0  0
   16.7956   11.4351   10.9224 N   0  0  0  0  0  0  0  0  0  0  0  0
   15.8690   10.3699   11.0437 C   0  0  0  0  0  0  0  0  0  0  0  0
   15.4937    9.8066    9.8013 C   0  0  0  0  0  0  0  0  0  0  0  0
   14.7386    8.6413    9.7104 C   0  0  0  0  0  0  0  0  0  0  0  0
   14.3679    7.9881   10.8675 C   0  0  0  0  0  0  0  0  0  0  0  0
   14.6819    8.5620   12.0962 C   0  0  0  0  0  0  0  0  0  0  0  0
   14.1870    7.9757   13.1977 F   0  0  0  0  0  0  0  0  0  0  0  0
   15.4157    9.7495   12.2097 C   0  0  0  0  0  0  0  0  0  0  0  0
   15.7589   10.2579   13.8153 Cl  0  0  0  0  0  0  0  0  0  0  0  0
   19.3935   13.8445   12.1241 C   0  0  0  0  0  0  0  0  0  0  0  0
   18.4955   15.0142   13.0203 Cl  0  0  0  0  0  0  0  0  0  0  0  0
   20.7474   14.1595   11.8861 C   0  0  0  0  0  0  0  0  0  0  0  0
  1  2  1  0
  2  3  2  0
  2  4  1  0
  4  5  2  0
  5  6  1  0
  6  7  1  0
  6  8  2  0
  8  9  1  0
  9 10  2  0
  9 11  1  0
 11 12  1  0
 12 13  2  0
 13 14  1  0
 14 15  2  0
 15 16  1  0
 16 17  1  0
 16 18  2  0
 18 19  1  0
  8 20  1  0
 20 21  1  0
 20 22  2  0
 22  4  1  0
 18 12  1  0
M  END
>  <HIPPO ID>  (21) 
11911

>  <ref_url>  (21) 
None

>  <ref_pdb>  (21) 
c0270a

>  <inchikey>  (21) 
OYUPIDAWSKPWNF-UHFFFAOYSA-N

>  <original SMILES>  (21) 
NC(=O)c1cc(Cl)c(C(=O)Nc2cccc(F)c2Cl)c(Cl)c1

>  <generation_date>  (21) 
None

>  <tags>  (21) 
[]

>  <ref_mols>  (21) 
c0692a,c1371a

>  <alias>  (21) 
None

>  <original ID>  (21) 
OYUPIDAWSKPWNF-UHFFFAOYSA-N

>  <exports>  (21) 
['/opt/xchem-fragalysis-2/maxwin/CHIKV_HIPPO/hippo_prod/CHIKV_prod11c_recipes/Recipe_1GJWBFH_poses.sdf', '/opt/xchem-fragalysis-2/maxwin/CHIKV_HIPPO/hippo_prod/CHIKV_prod11c_recipes/Recipe_1GJXK8G_poses.sdf', '/opt/xchem-fragalysis-2/maxwin/CHIKV_HIPPO/hippo_prod/CHIKV_prod11c_recipes/Recipe_1GJXW46_poses.sdf']

>  <method>  (21) 
None

>  <submitter_email>  (21) 
None

>  <submitter_name>  (21) 
None

$$$$
SAIDAQMCKKGFBM-UHFFFAOYSA-N
     RDKit          3D

 22 23  0  0  0  0  0  0  0  0999 V2000
   23.6980   14.2357   11.6874 N   0  0  0  0  0  0  0  0  0  0  0  0
   22.9200   13.6516   10.7422 C   0  0  0  0  0  0  0  0  0  0  0  0
   23.3078   13.3895    9.6146 O   0  0  0  0  0  0  0  0  0  0  0  0
   21.5499   13.3242   11.1506 C   0  0  0  0  0  0  0  0  0  0  0  0
   21.0423   12.1596   10.6338 C   0  0  0  0  0  0  0  0  0  0  0  0
   19.7053   11.8669   10.8401 C   0  0  0  0  0  0  0  0  0  0  0  0
   19.1769   10.5189    9.9998 Cl  0  0  0  0  0  0  0  0  0  0  0  0
   18.8388   12.6530   11.6037 C   0  0  0  0  0  0  0  0  0  0  0  0
   17.4373   12.1647   11.9046 C   0  0  0  0  0  0  0  0  0  0  0  0
   16.9485   12.4407   12.9882 O   0  0  0  0  0  0  0  0  0  0  0  0
   16.8133   11.4312   10.9143 N   0  0  0  0  0  0  0  0  0  0  0  0
   15.8656   10.3780   10.9484 C   0  0  0  0  0  0  0  0  0  0  0  0
   15.4400    9.9747    9.6647 C   0  0  0  0  0  0  0  0  0  0  0  0
   14.6552    8.8491    9.4596 C   0  0  0  0  0  0  0  0  0  0  0  0
   14.3230    8.0692   10.5435 C   0  0  0  0  0  0  0  0  0  0  0  0
   13.5649    6.9517   10.3715 O   0  0  0  0  0  0  0  0  0  0  0  0
   14.7059    8.4436   11.8266 C   0  0  0  0  0  0  0  0  0  0  0  0
   15.4378    9.6228   12.0447 C   0  0  0  0  0  0  0  0  0  0  0  0
   15.8027    9.9646   13.6884 Cl  0  0  0  0  0  0  0  0  0  0  0  0
   19.3869   13.8179   12.1522 C   0  0  0  0  0  0  0  0  0  0  0  0
   18.4531   14.9617   13.0438 Cl  0  0  0  0  0  0  0  0  0  0  0  0
   20.7354   14.1591   11.9183 C   0  0  0  0  0  0  0  0  0  0  0  0
  1  2  1  0
  2  3  2  0
  2  4  1  0
  4  5  2  0
  5  6  1  0
  6  7  1  0
  6  8  2  0
  8  9  1  0
  9 10  2  0
  9 11  1  0
 11 12  1  0
 12 13  2  0
 13 14  1  0
 14 15  2  0
 15 16  1  0
 15 17  1  0
 17 18  2  0
 18 19  1  0
  8 20  1  0
 20 21  1  0
 20 22  2  0
 22  4  1  0
 18 12  1  0
M  END
>  <HIPPO ID>  (22) 
12247

>  <ref_url>  (22) 
None

>  <ref_pdb>  (22) 
c0270a

>  <inchikey>  (22) 
SAIDAQMCKKGFBM-UHFFFAOYSA-N

>  <original SMILES>  (22) 
NC(=O)c1cc(Cl)c(C(=O)Nc2ccc(O)cc2Cl)c(Cl)c1

>  <generation_date>  (22) 
None

>  <tags>  (22) 
[]

>  <ref_mols>  (22) 
c0692a,c1371a

>  <alias>  (22) 
None

>  <original ID>  (22) 
SAIDAQMCKKGFBM-UHFFFAOYSA-N

>  <exports>  (22) 
['/opt/xchem-fragalysis-2/maxwin/CHIKV_HIPPO/hippo_prod/CHIKV_prod11b_recipes/Recipe_1GFD8FK_poses.sdf', '/opt/xchem-fragalysis-2/maxwin/CHIKV_HIPPO/hippo_prod/CHIKV_prod11c_recipes/Recipe_1GJWBFH_poses.sdf', '/opt/xchem-fragalysis-2/maxwin/CHIKV_HIPPO/hippo_prod/CHIKV_prod11c_recipes/Recipe_1GJXK8G_poses.sdf', '/opt/xchem-fragalysis-2/maxwin/CHIKV_HIPPO/hippo_prod/CHIKV_prod11c_recipes/Recipe_1GJXW46_poses.sdf']

>  <method>  (22) 
None

>  <submitter_email>  (22) 
None

>  <submitter_name>  (22) 
None

$$$$
LIVPMYYMBBCDFT-UHFFFAOYSA-N
     RDKit          3D

 22 23  0  0  0  0  0  0  0  0999 V2000
   23.2576   14.3280    9.6805 N   0  0  0  0  0  0  0  0  0  0  0  0
   23.0386   13.2972   10.5274 C   0  0  0  0  0  0  0  0  0  0  0  0
   23.8958   12.4815   10.8181 O   0  0  0  0  0  0  0  0  0  0  0  0
   21.6588   13.1361   10.9898 C   0  0  0  0  0  0  0  0  0  0  0  0
   21.0719   11.9587   10.6057 C   0  0  0  0  0  0  0  0  0  0  0  0
   19.7132   11.7962   10.8185 C   0  0  0  0  0  0  0  0  0  0  0  0
   19.0736   10.4756   10.0147 Cl  0  0  0  0  0  0  0  0  0  0  0  0
   18.9084   12.6975   11.5203 C   0  0  0  0  0  0  0  0  0  0  0  0
   17.4559   12.3577   11.8201 C   0  0  0  0  0  0  0  0  0  0  0  0
   16.9000   12.8837   12.7724 O   0  0  0  0  0  0  0  0  0  0  0  0
   16.8121   11.4883   10.9564 N   0  0  0  0  0  0  0  0  0  0  0  0
   15.8882   10.4253   11.1622 C   0  0  0  0  0  0  0  0  0  0  0  0
   15.5279    9.7801    9.9531 C   0  0  0  0  0  0  0  0  0  0  0  0
   14.8180    8.5876    9.9310 C   0  0  0  0  0  0  0  0  0  0  0  0
   14.4813    7.9871   11.1278 C   0  0  0  0  0  0  0  0  0  0  0  0
   14.7764    8.6297   12.3385 C   0  0  0  0  0  0  0  0  0  0  0  0
   14.1558    7.7264   13.9114 Br  0  0  0  0  0  0  0  0  0  0  0  0
   15.4504    9.8759   12.3833 C   0  0  0  0  0  0  0  0  0  0  0  0
   15.7634   10.6042   13.9845 S   0  0  0  0  0  0  0  0  0  0  0  0
   19.5549   13.8538   11.9806 C   0  0  0  0  0  0  0  0  0  0  0  0
   18.7448   15.1002   12.8574 Cl  0  0  0  0  0  0  0  0  0  0  0  0
   20.9164   14.0925   11.6807 C   0  0  0  0  0  0  0  0  0  0  0  0
  1  2  1  0
  2  3  2  0
  2  4  1  0
  4  5  2  0
  5  6  1  0
  6  7  1  0
  6  8  2  0
  8  9  1  0
  9 10  2  0
  9 11  1  0
 11 12  1  0
 12 13  2  0
 13 14  1  0
 14 15  2  0
 15 16  1  0
 16 17  1  0
 16 18  2  0
 18 19  1  0
  8 20  1  0
 20 21  1  0
 20 22  2  0
 22  4  1  0
 18 12  1  0
M  END
>  <HIPPO ID>  (23) 
12355

>  <ref_url>  (23) 
None

>  <ref_pdb>  (23) 
c0270a

>  <inchikey>  (23) 
LIVPMYYMBBCDFT-UHFFFAOYSA-N

>  <original SMILES>  (23) 
NC(=O)c1cc(Cl)c(C(=O)Nc2cccc(Br)c2S)c(Cl)c1

>  <generation_date>  (23) 
None

>  <tags>  (23) 
[]

>  <ref_mols>  (23) 
c0692a,c1371a

>  <alias>  (23) 
None

>  <original ID>  (23) 
LIVPMYYMBBCDFT-UHFFFAOYSA-N

>  <exports>  (23) 
['/opt/xchem-fragalysis-2/maxwin/CHIKV_HIPPO/hippo_prod/CHIKV_prod11c_recipes/Recipe_1GJWBFH_poses.sdf', '/opt/xchem-fragalysis-2/maxwin/CHIKV_HIPPO/hippo_prod/CHIKV_prod11c_recipes/Recipe_1GJXK8G_poses.sdf', '/opt/xchem-fragalysis-2/maxwin/CHIKV_HIPPO/hippo_prod/CHIKV_prod11c_recipes/Recipe_1GJXW46_poses.sdf']

>  <method>  (23) 
None

>  <submitter_email>  (23) 
None

>  <submitter_name>  (23) 
None

$$$$
XNMWMZVGWGQIEJ-UHFFFAOYSA-N
     RDKit          3D

 22 23  0  0  0  0  0  0  0  0999 V2000
   23.0109   14.4025    9.7763 N   0  0  0  0  0  0  0  0  0  0  0  0
   22.8066   13.2870   10.5124 C   0  0  0  0  0  0  0  0  0  0  0  0
   23.6705   12.4501   10.7061 O   0  0  0  0  0  0  0  0  0  0  0  0
   21.4330   13.0884   10.9866 C   0  0  0  0  0  0  0  0  0  0  0  0
   20.8465   11.9093   10.5971 C   0  0  0  0  0  0  0  0  0  0  0  0
   19.4946   11.7304   10.8413 C   0  0  0  0  0  0  0  0  0  0  0  0
   18.8205   10.4023   10.0740 Cl  0  0  0  0  0  0  0  0  0  0  0  0
   18.7063   12.6164   11.5776 C   0  0  0  0  0  0  0  0  0  0  0  0
   17.2894   12.2234   11.9417 C   0  0  0  0  0  0  0  0  0  0  0  0
   16.8567   12.5718   13.0280 O   0  0  0  0  0  0  0  0  0  0  0  0
   16.5807   11.4978   10.9979 N   0  0  0  0  0  0  0  0  0  0  0  0
   15.6964   10.3874   11.0995 C   0  0  0  0  0  0  0  0  0  0  0  0
   15.2328    9.9286    9.8453 C   0  0  0  0  0  0  0  0  0  0  0  0
   14.5420    8.7314    9.7124 C   0  0  0  0  0  0  0  0  0  0  0  0
   13.9985    8.4302    8.5055 O   0  0  0  0  0  0  0  0  0  0  0  0
   14.3653    7.9043   10.7999 C   0  0  0  0  0  0  0  0  0  0  0  0
   14.7698    8.3613   12.0551 C   0  0  0  0  0  0  0  0  0  0  0  0
   15.3799    9.6212   12.2235 C   0  0  0  0  0  0  0  0  0  0  0  0
   15.7093   10.0900   14.0218 Br  0  0  0  0  0  0  0  0  0  0  0  0
   19.3461   13.7755   12.0332 C   0  0  0  0  0  0  0  0  0  0  0  0
   18.5283   15.0022   12.9279 Cl  0  0  0  0  0  0  0  0  0  0  0  0
   20.6957   14.0312   11.7048 C   0  0  0  0  0  0  0  0  0  0  0  0
  1  2  1  0
  2  3  2  0
  2  4  1  0
  4  5  2  0
  5  6  1  0
  6  7  1  0
  6  8  2  0
  8  9  1  0
  9 10  2  0
  9 11  1  0
 11 12  1  0
 12 13  2  0
 13 14  1  0
 14 15  1  0
 14 16  2  0
 16 17  1  0
 17 18  2  0
 18 19  1  0
  8 20  1  0
 20 21  1  0
 20 22  2  0
 22  4  1  0
 18 12  1  0
M  END
>  <HIPPO ID>  (24) 
12368

>  <ref_url>  (24) 
None

>  <ref_pdb>  (24) 
c0270a

>  <inchikey>  (24) 
XNMWMZVGWGQIEJ-UHFFFAOYSA-N

>  <original SMILES>  (24) 
NC(=O)c1cc(Cl)c(C(=O)Nc2cc(O)ccc2Br)c(Cl)c1

>  <generation_date>  (24) 
None

>  <tags>  (24) 
[]

>  <ref_mols>  (24) 
c0692a,c1371a

>  <alias>  (24) 
None

>  <original ID>  (24) 
XNMWMZVGWGQIEJ-UHFFFAOYSA-N

>  <exports>  (24) 
['/opt/xchem-fragalysis-2/maxwin/CHIKV_HIPPO/hippo_prod/CHIKV_prod11c_recipes/Recipe_1GJWBFH_poses.sdf', '/opt/xchem-fragalysis-2/maxwin/CHIKV_HIPPO/hippo_prod/CHIKV_prod11c_recipes/Recipe_1GJXK8G_poses.sdf', '/opt/xchem-fragalysis-2/maxwin/CHIKV_HIPPO/hippo_prod/CHIKV_prod11c_recipes/Recipe_1GJXW46_poses.sdf']

>  <method>  (24) 
None

>  <submitter_email>  (24) 
None

>  <submitter_name>  (24) 
None

$$$$
DMXCPDHEVSRFFY-UHFFFAOYSA-N
     RDKit          3D

 23 24  0  0  0  0  0  0  0  0999 V2000
   13.7299    8.5173    8.7691 C   0  0  0  0  0  0  0  0  0  0  0  0
   14.5694    8.7562    9.9780 C   0  0  0  0  0  0  0  0  0  0  0  0
   15.4269    9.8659    9.9891 C   0  0  0  0  0  0  0  0  0  0  0  0
   15.9714   10.3708   11.1806 C   0  0  0  0  0  0  0  0  0  0  0  0
   16.9283   11.3991   10.9886 N   0  0  0  0  0  0  0  0  0  0  0  0
   17.5205   12.2639   11.8906 C   0  0  0  0  0  0  0  0  0  0  0  0
   16.9597   12.6703   12.8967 O   0  0  0  0  0  0  0  0  0  0  0  0
   18.9287   12.7405   11.5982 C   0  0  0  0  0  0  0  0  0  0  0  0
   19.8083   11.9636   10.8426 C   0  0  0  0  0  0  0  0  0  0  0  0
   19.3383   10.5996   10.0059 Cl  0  0  0  0  0  0  0  0  0  0  0  0
   21.1434   12.2653   10.6392 C   0  0  0  0  0  0  0  0  0  0  0  0
   21.6493   13.4210   11.1673 C   0  0  0  0  0  0  0  0  0  0  0  0
   23.0325   13.7188   10.7892 C   0  0  0  0  0  0  0  0  0  0  0  0
   23.8060   14.2657   11.7596 N   0  0  0  0  0  0  0  0  0  0  0  0
   23.4375   13.4537    9.6685 O   0  0  0  0  0  0  0  0  0  0  0  0
   20.8290   14.2505   11.9305 C   0  0  0  0  0  0  0  0  0  0  0  0
   19.4762   13.9084   12.1485 C   0  0  0  0  0  0  0  0  0  0  0  0
   18.5483   15.0587   13.0405 Cl  0  0  0  0  0  0  0  0  0  0  0  0
   15.6043    9.7415   12.3761 C   0  0  0  0  0  0  0  0  0  0  0  0
   16.0155   10.2686   13.9558 Cl  0  0  0  0  0  0  0  0  0  0  0  0
   14.8848    8.5378   12.3433 C   0  0  0  0  0  0  0  0  0  0  0  0
   14.3909    8.0310   11.1481 C   0  0  0  0  0  0  0  0  0  0  0  0
   13.4504    6.5822   11.1901 Cl  0  0  0  0  0  0  0  0  0  0  0  0
  1  2  1  0
  2  3  2  0
  3  4  1  0
  4  5  1  0
  5  6  1  0
  6  7  2  0
  6  8  1  0
  8  9  2  0
  9 10  1  0
  9 11  1  0
 11 12  2  0
 12 13  1  0
 13 14  1  0
 13 15  2  0
 12 16  1  0
 16 17  2  0
 17 18  1  0
  4 19  2  0
 19 20  1  0
 19 21  1  0
 21 22  2  0
 22 23  1  0
 22  2  1  0
 17  8  1  0
M  END
>  <HIPPO ID>  (25) 
13041

>  <ref_url>  (25) 
None

>  <ref_pdb>  (25) 
c0270a

>  <inchikey>  (25) 
DMXCPDHEVSRFFY-UHFFFAOYSA-N

>  <original SMILES>  (25) 
Cc1cc(NC(=O)c2c(Cl)cc(C(N)=O)cc2Cl)c(Cl)cc1Cl

>  <generation_date>  (25) 
None

>  <tags>  (25) 
[]

>  <ref_mols>  (25) 
c0692a,c1371a

>  <alias>  (25) 
None

>  <original ID>  (25) 
DMXCPDHEVSRFFY-UHFFFAOYSA-N

>  <exports>  (25) 
['/opt/xchem-fragalysis-2/maxwin/CHIKV_HIPPO/hippo_prod/CHIKV_prod11c_recipes/Recipe_1GJWBFH_poses.sdf', '/opt/xchem-fragalysis-2/maxwin/CHIKV_HIPPO/hippo_prod/CHIKV_prod11c_recipes/Recipe_1GJXK8G_poses.sdf', '/opt/xchem-fragalysis-2/maxwin/CHIKV_HIPPO/hippo_prod/CHIKV_prod11c_recipes/Recipe_1GJXW46_poses.sdf']

>  <method>  (25) 
None

>  <submitter_email>  (25) 
None

>  <submitter_name>  (25) 
None

$$$$
YOSCSIZXLRCNOC-UHFFFAOYSA-N
     RDKit          3D

 23 24  0  0  0  0  0  0  0  0999 V2000
   23.1522   14.4015    9.6246 N   0  0  0  0  0  0  0  0  0  0  0  0
   23.0043   13.4016   10.5236 C   0  0  0  0  0  0  0  0  0  0  0  0
   23.9058   12.6452   10.8385 O   0  0  0  0  0  0  0  0  0  0  0  0
   21.6384   13.1903   11.0031 C   0  0  0  0  0  0  0  0  0  0  0  0
   21.0948   11.9984   10.6087 C   0  0  0  0  0  0  0  0  0  0  0  0
   19.7414   11.7935   10.8113 C   0  0  0  0  0  0  0  0  0  0  0  0
   19.1554   10.4794    9.9690 Cl  0  0  0  0  0  0  0  0  0  0  0  0
   18.9016   12.6538   11.5193 C   0  0  0  0  0  0  0  0  0  0  0  0
   17.4723   12.2400   11.8388 C   0  0  0  0  0  0  0  0  0  0  0  0
   16.9470   12.6978   12.8426 O   0  0  0  0  0  0  0  0  0  0  0  0
   16.8462   11.3422   10.9799 N   0  0  0  0  0  0  0  0  0  0  0  0
   15.9250   10.2981   11.2845 C   0  0  0  0  0  0  0  0  0  0  0  0
   15.5750    9.4134   10.2317 C   0  0  0  0  0  0  0  0  0  0  0  0
   16.1035    9.5095    8.9540 N   0  0  0  0  0  0  0  0  0  0  0  0
   14.8617    8.2365   10.5062 C   0  0  0  0  0  0  0  0  0  0  0  0
   14.4672    7.9330   11.7972 C   0  0  0  0  0  0  0  0  0  0  0  0
   14.7469    8.8359   12.8170 C   0  0  0  0  0  0  0  0  0  0  0  0
   14.0921    8.4759   14.5563 Br  0  0  0  0  0  0  0  0  0  0  0  0
   15.4667   10.0041   12.5684 C   0  0  0  0  0  0  0  0  0  0  0  0
   15.7836   10.7718   13.6145 F   0  0  0  0  0  0  0  0  0  0  0  0
   19.5067   13.8288   11.9895 C   0  0  0  0  0  0  0  0  0  0  0  0
   18.6501   15.0431   12.8679 Cl  0  0  0  0  0  0  0  0  0  0  0  0
   20.8606   14.1178   11.6945 C   0  0  0  0  0  0  0  0  0  0  0  0
  1  2  1  0
  2  3  2  0
  2  4  1  0
  4  5  2  0
  5  6  1  0
  6  7  1  0
  6  8  2  0
  8  9  1  0
  9 10  2  0
  9 11  1  0
 11 12  1  0
 12 13  2  0
 13 14  1  0
 13 15  1  0
 15 16  2  0
 16 17  1  0
 17 18  1  0
 17 19  2  0
 19 20  1  0
  8 21  1  0
 21 22  1  0
 21 23  2  0
 23  4  1  0
 19 12  1  0
M  END
>  <HIPPO ID>  (26) 
13084

>  <ref_url>  (26) 
None

>  <ref_pdb>  (26) 
c0270a

>  <inchikey>  (26) 
YOSCSIZXLRCNOC-UHFFFAOYSA-N

>  <original SMILES>  (26) 
NC(=O)c1cc(Cl)c(C(=O)Nc2c(N)ccc(Br)c2F)c(Cl)c1

>  <generation_date>  (26) 
None

>  <tags>  (26) 
[]

>  <ref_mols>  (26) 
c0692a,c1371a

>  <alias>  (26) 
None

>  <original ID>  (26) 
YOSCSIZXLRCNOC-UHFFFAOYSA-N

>  <exports>  (26) 
['/opt/xchem-fragalysis-2/maxwin/CHIKV_HIPPO/hippo_prod/CHIKV_prod11c_recipes/Recipe_1GJWBFH_poses.sdf', '/opt/xchem-fragalysis-2/maxwin/CHIKV_HIPPO/hippo_prod/CHIKV_prod11c_recipes/Recipe_1GJXK8G_poses.sdf', '/opt/xchem-fragalysis-2/maxwin/CHIKV_HIPPO/hippo_prod/CHIKV_prod11c_recipes/Recipe_1GJXW46_poses.sdf']

>  <method>  (26) 
None

>  <submitter_email>  (26) 
None

>  <submitter_name>  (26) 
None

$$$$
DXZHSDOXEDZGGI-UHFFFAOYSA-N
     RDKit          3D

 23 24  0  0  0  0  0  0  0  0999 V2000
   23.1276   14.4109    9.6222 N   0  0  0  0  0  0  0  0  0  0  0  0
   22.9770   13.3884   10.4945 C   0  0  0  0  0  0  0  0  0  0  0  0
   23.8740   12.6161   10.7828 O   0  0  0  0  0  0  0  0  0  0  0  0
   21.6139   13.1774   10.9832 C   0  0  0  0  0  0  0  0  0  0  0  0
   21.0610   11.9874   10.5843 C   0  0  0  0  0  0  0  0  0  0  0  0
   19.7153   11.7814   10.8181 C   0  0  0  0  0  0  0  0  0  0  0  0
   19.0707   10.4695   10.0063 Cl  0  0  0  0  0  0  0  0  0  0  0  0
   18.9060   12.6436   11.5578 C   0  0  0  0  0  0  0  0  0  0  0  0
   17.5181   12.1901   11.9419 C   0  0  0  0  0  0  0  0  0  0  0  0
   17.1619   12.3615   13.1002 O   0  0  0  0  0  0  0  0  0  0  0  0
   16.7910   11.5233   10.9684 N   0  0  0  0  0  0  0  0  0  0  0  0
   15.8735   10.4410   11.0721 C   0  0  0  0  0  0  0  0  0  0  0  0
   15.5310    9.8532    9.8326 C   0  0  0  0  0  0  0  0  0  0  0  0
   14.8060    8.6692    9.7498 C   0  0  0  0  0  0  0  0  0  0  0  0
   14.4295    8.0333   10.9154 C   0  0  0  0  0  0  0  0  0  0  0  0
   13.4465    6.4212   10.8073 Br  0  0  0  0  0  0  0  0  0  0  0  0
   14.7085    8.6349   12.1440 C   0  0  0  0  0  0  0  0  0  0  0  0
   14.2046    8.1002   13.2704 F   0  0  0  0  0  0  0  0  0  0  0  0
   15.4238    9.8429   12.2543 C   0  0  0  0  0  0  0  0  0  0  0  0
   15.4719   10.4656   13.5013 N   0  0  0  0  0  0  0  0  0  0  0  0
   19.5093   13.8145   12.0227 C   0  0  0  0  0  0  0  0  0  0  0  0
   18.6358   15.0016   12.9162 Cl  0  0  0  0  0  0  0  0  0  0  0  0
   20.8529   14.1051   11.6991 C   0  0  0  0  0  0  0  0  0  0  0  0
  1  2  1  0
  2  3  2  0
  2  4  1  0
  4  5  2  0
  5  6  1  0
  6  7  1  0
  6  8  2  0
  8  9  1  0
  9 10  2  0
  9 11  1  0
 11 12  1  0
 12 13  2  0
 13 14  1  0
 14 15  2  0
 15 16  1  0
 15 17  1  0
 17 18  1  0
 17 19  2  0
 19 20  1  0
  8 21  1  0
 21 22  1  0
 21 23  2  0
 23  4  1  0
 19 12  1  0
M  END
>  <HIPPO ID>  (27) 
13085

>  <ref_url>  (27) 
None

>  <ref_pdb>  (27) 
c0270a

>  <inchikey>  (27) 
DXZHSDOXEDZGGI-UHFFFAOYSA-N

>  <original SMILES>  (27) 
NC(=O)c1cc(Cl)c(C(=O)Nc2ccc(Br)c(F)c2N)c(Cl)c1

>  <generation_date>  (27) 
None

>  <tags>  (27) 
[]

>  <ref_mols>  (27) 
c0692a,c1371a

>  <alias>  (27) 
None

>  <original ID>  (27) 
DXZHSDOXEDZGGI-UHFFFAOYSA-N

>  <exports>  (27) 
['/opt/xchem-fragalysis-2/maxwin/CHIKV_HIPPO/hippo_prod/CHIKV_prod11c_recipes/Recipe_1GJWBFH_poses.sdf', '/opt/xchem-fragalysis-2/maxwin/CHIKV_HIPPO/hippo_prod/CHIKV_prod11c_recipes/Recipe_1GJXK8G_poses.sdf', '/opt/xchem-fragalysis-2/maxwin/CHIKV_HIPPO/hippo_prod/CHIKV_prod11c_recipes/Recipe_1GJXW46_poses.sdf']

>  <method>  (27) 
None

>  <submitter_email>  (27) 
None

>  <submitter_name>  (27) 
None

$$$$
QIUPEYZWRZUALQ-UHFFFAOYSA-N
     RDKit          3D

 23 24  0  0  0  0  0  0  0  0999 V2000
   23.0187   14.4342    9.7029 N   0  0  0  0  0  0  0  0  0  0  0  0
   22.8659   13.3654   10.5173 C   0  0  0  0  0  0  0  0  0  0  0  0
   23.7607   12.5749   10.7584 O   0  0  0  0  0  0  0  0  0  0  0  0
   21.5030   13.1433   11.0061 C   0  0  0  0  0  0  0  0  0  0  0  0
   20.9438   11.9571   10.6031 C   0  0  0  0  0  0  0  0  0  0  0  0
   19.5966   11.7542   10.8379 C   0  0  0  0  0  0  0  0  0  0  0  0
   18.9512   10.4347   10.0358 Cl  0  0  0  0  0  0  0  0  0  0  0  0
   18.7891   12.6190   11.5784 C   0  0  0  0  0  0  0  0  0  0  0  0
   17.3806   12.1919   11.9200 C   0  0  0  0  0  0  0  0  0  0  0  0
   16.9371   12.4286   13.0364 O   0  0  0  0  0  0  0  0  0  0  0  0
   16.6883   11.5115   10.9320 N   0  0  0  0  0  0  0  0  0  0  0  0
   15.7730   10.4316   11.0112 C   0  0  0  0  0  0  0  0  0  0  0  0
   15.2985    9.9810    9.7642 C   0  0  0  0  0  0  0  0  0  0  0  0
   14.5445    8.8247    9.6636 C   0  0  0  0  0  0  0  0  0  0  0  0
   13.9979    8.5097    8.4836 F   0  0  0  0  0  0  0  0  0  0  0  0
   14.3395    8.0387   10.7815 C   0  0  0  0  0  0  0  0  0  0  0  0
   13.4433    6.5743   10.6663 Cl  0  0  0  0  0  0  0  0  0  0  0  0
   14.7951    8.4812   12.0278 C   0  0  0  0  0  0  0  0  0  0  0  0
   15.4312    9.7264   12.1752 C   0  0  0  0  0  0  0  0  0  0  0  0
   15.9167   10.0673   13.4448 N   0  0  0  0  0  0  0  0  0  0  0  0
   19.4000   13.7838   12.0499 C   0  0  0  0  0  0  0  0  0  0  0  0
   18.5387   14.9775   12.9463 Cl  0  0  0  0  0  0  0  0  0  0  0  0
   20.7458   14.0684   11.7292 C   0  0  0  0  0  0  0  0  0  0  0  0
  1  2  1  0
  2  3  2  0
  2  4  1  0
  4  5  2  0
  5  6  1  0
  6  7  1  0
  6  8  2  0
  8  9  1  0
  9 10  2  0
  9 11  1  0
 11 12  1  0
 12 13  2  0
 13 14  1  0
 14 15  1  0
 14 16  2  0
 16 17  1  0
 16 18  1  0
 18 19  2  0
 19 20  1  0
  8 21  1  0
 21 22  1  0
 21 23  2  0
 23  4  1  0
 19 12  1  0
M  END
>  <HIPPO ID>  (28) 
13226

>  <ref_url>  (28) 
None

>  <ref_pdb>  (28) 
c0270a

>  <inchikey>  (28) 
QIUPEYZWRZUALQ-UHFFFAOYSA-N

>  <original SMILES>  (28) 
NC(=O)c1cc(Cl)c(C(=O)Nc2cc(F)c(Cl)cc2N)c(Cl)c1

>  <generation_date>  (28) 
None

>  <tags>  (28) 
[]

>  <ref_mols>  (28) 
c0692a,c1371a

>  <alias>  (28) 
None

>  <original ID>  (28) 
QIUPEYZWRZUALQ-UHFFFAOYSA-N

>  <exports>  (28) 
['/opt/xchem-fragalysis-2/maxwin/CHIKV_HIPPO/hippo_prod/CHIKV_prod11c_recipes/Recipe_1GJWBFH_poses.sdf', '/opt/xchem-fragalysis-2/maxwin/CHIKV_HIPPO/hippo_prod/CHIKV_prod11c_recipes/Recipe_1GJXK8G_poses.sdf', '/opt/xchem-fragalysis-2/maxwin/CHIKV_HIPPO/hippo_prod/CHIKV_prod11c_recipes/Recipe_1GJXW46_poses.sdf']

>  <method>  (28) 
None

>  <submitter_email>  (28) 
None

>  <submitter_name>  (28) 
None

$$$$
DXSNNUYZWIBHTR-UHFFFAOYSA-N
     RDKit          3D

 23 24  0  0  0  0  0  0  0  0999 V2000
   23.8013   14.1882   11.6387 N   0  0  0  0  0  0  0  0  0  0  0  0
   22.9991   13.6377   10.6939 C   0  0  0  0  0  0  0  0  0  0  0  0
   23.3640   13.3898    9.5560 O   0  0  0  0  0  0  0  0  0  0  0  0
   21.6305   13.3273   11.1163 C   0  0  0  0  0  0  0  0  0  0  0  0
   21.1049   12.1657   10.6082 C   0  0  0  0  0  0  0  0  0  0  0  0
   19.7691   11.8872   10.8338 C   0  0  0  0  0  0  0  0  0  0  0  0
   19.2078   10.5394   10.0098 Cl  0  0  0  0  0  0  0  0  0  0  0  0
   18.9273   12.6898   11.6084 C   0  0  0  0  0  0  0  0  0  0  0  0
   17.5385   12.2149   11.9488 C   0  0  0  0  0  0  0  0  0  0  0  0
   17.0770   12.4602   13.0572 O   0  0  0  0  0  0  0  0  0  0  0  0
   16.8771   11.4778   10.9887 N   0  0  0  0  0  0  0  0  0  0  0  0
   15.9417   10.4267   11.1275 C   0  0  0  0  0  0  0  0  0  0  0  0
   15.4021    9.9767    9.9139 C   0  0  0  0  0  0  0  0  0  0  0  0
   14.5502    8.8876    9.8917 C   0  0  0  0  0  0  0  0  0  0  0  0
   13.6056    8.5939    8.5103 Cl  0  0  0  0  0  0  0  0  0  0  0  0
   14.3511    8.1423   11.0367 C   0  0  0  0  0  0  0  0  0  0  0  0
   13.5082    7.0977   11.0277 F   0  0  0  0  0  0  0  0  0  0  0  0
   14.8831    8.5698   12.2455 C   0  0  0  0  0  0  0  0  0  0  0  0
   15.5948    9.7739   12.3265 C   0  0  0  0  0  0  0  0  0  0  0  0
   16.1299   10.1187   13.5757 N   0  0  0  0  0  0  0  0  0  0  0  0
   19.4902   13.8522   12.1429 C   0  0  0  0  0  0  0  0  0  0  0  0
   18.5704   15.0032   13.0398 Cl  0  0  0  0  0  0  0  0  0  0  0  0
   20.8367   14.1774   11.8901 C   0  0  0  0  0  0  0  0  0  0  0  0
  1  2  1  0
  2  3  2  0
  2  4  1  0
  4  5  2  0
  5  6  1  0
  6  7  1  0
  6  8  2  0
  8  9  1  0
  9 10  2  0
  9 11  1  0
 11 12  1  0
 12 13  2  0
 13 14  1  0
 14 15  1  0
 14 16  2  0
 16 17  1  0
 16 18  1  0
 18 19  2  0
 19 20  1  0
  8 21  1  0
 21 22  1  0
 21 23  2  0
 23  4  1  0
 19 12  1  0
M  END
>  <HIPPO ID>  (29) 
13241

>  <ref_url>  (29) 
None

>  <ref_pdb>  (29) 
c0270a

>  <inchikey>  (29) 
DXSNNUYZWIBHTR-UHFFFAOYSA-N

>  <original SMILES>  (29) 
NC(=O)c1cc(Cl)c(C(=O)Nc2cc(Cl)c(F)cc2N)c(Cl)c1

>  <generation_date>  (29) 
None

>  <tags>  (29) 
[]

>  <ref_mols>  (29) 
c0692a,c1371a

>  <alias>  (29) 
None

>  <original ID>  (29) 
DXSNNUYZWIBHTR-UHFFFAOYSA-N

>  <exports>  (29) 
['/opt/xchem-fragalysis-2/maxwin/CHIKV_HIPPO/hippo_prod/CHIKV_prod11c_recipes/Recipe_1GJWBFH_poses.sdf', '/opt/xchem-fragalysis-2/maxwin/CHIKV_HIPPO/hippo_prod/CHIKV_prod11c_recipes/Recipe_1GJXK8G_poses.sdf', '/opt/xchem-fragalysis-2/maxwin/CHIKV_HIPPO/hippo_prod/CHIKV_prod11c_recipes/Recipe_1GJXW46_poses.sdf']

>  <method>  (29) 
None

>  <submitter_email>  (29) 
None

>  <submitter_name>  (29) 
None

$$$$
DJLJMRWSFFVBRQ-UHFFFAOYSA-N
     RDKit          3D

 23 24  0  0  0  0  0  0  0  0999 V2000
   13.5406    6.5639   11.6993 C   0  0  0  0  0  0  0  0  0  0  0  0
   14.3469    7.8292   11.6165 C   0  0  0  0  0  0  0  0  0  0  0  0
   14.6364    8.3325   10.3589 C   0  0  0  0  0  0  0  0  0  0  0  0
   15.3162    9.5371   10.2505 C   0  0  0  0  0  0  0  0  0  0  0  0
   15.3353   10.2293    8.7153 Cl  0  0  0  0  0  0  0  0  0  0  0  0
   15.8448   10.2245   11.3480 C   0  0  0  0  0  0  0  0  0  0  0  0
   16.7373   11.3101   11.1061 N   0  0  0  0  0  0  0  0  0  0  0  0
   17.4232   12.0717   12.0407 C   0  0  0  0  0  0  0  0  0  0  0  0
   17.0568   12.2193   13.2012 O   0  0  0  0  0  0  0  0  0  0  0  0
   18.7583   12.6587   11.6461 C   0  0  0  0  0  0  0  0  0  0  0  0
   19.6375   11.9227   10.8552 C   0  0  0  0  0  0  0  0  0  0  0  0
   19.1642   10.5597   10.0235 Cl  0  0  0  0  0  0  0  0  0  0  0  0
   20.9617   12.2608   10.6357 C   0  0  0  0  0  0  0  0  0  0  0  0
   21.4479   13.4224   11.1729 C   0  0  0  0  0  0  0  0  0  0  0  0
   22.8254   13.7530   10.7927 C   0  0  0  0  0  0  0  0  0  0  0  0
   23.5853   14.3253   11.7604 N   0  0  0  0  0  0  0  0  0  0  0  0
   23.2403   13.4933    9.6742 O   0  0  0  0  0  0  0  0  0  0  0  0
   20.6139   14.2244   11.9541 C   0  0  0  0  0  0  0  0  0  0  0  0
   19.2771   13.8362   12.1957 C   0  0  0  0  0  0  0  0  0  0  0  0
   18.3095   14.9289   13.1144 Cl  0  0  0  0  0  0  0  0  0  0  0  0
   15.5252    9.7356   12.6048 C   0  0  0  0  0  0  0  0  0  0  0  0
   14.7182    8.5883   12.7461 C   0  0  0  0  0  0  0  0  0  0  0  0
   14.4123    8.1502   14.0364 N   0  0  0  0  0  0  0  0  0  0  0  0
  1  2  1  0
  2  3  2  0
  3  4  1  0
  4  5  1  0
  4  6  2  0
  6  7  1  0
  7  8  1  0
  8  9  2  0
  8 10  1  0
 10 11  2  0
 11 12  1  0
 11 13  1  0
 13 14  2  0
 14 15  1  0
 15 16  1  0
 15 17  2  0
 14 18  1  0
 18 19  2  0
 19 20  1  0
  6 21  1  0
 21 22  2  0
 22 23  1  0
 22  2  1  0
 19 10  1  0
M  END
>  <HIPPO ID>  (30) 
13420

>  <ref_url>  (30) 
None

>  <ref_pdb>  (30) 
c0270a

>  <inchikey>  (30) 
DJLJMRWSFFVBRQ-UHFFFAOYSA-N

>  <original SMILES>  (30) 
Cc1cc(Cl)c(NC(=O)c2c(Cl)cc(C(N)=O)cc2Cl)cc1N

>  <generation_date>  (30) 
None

>  <tags>  (30) 
[]

>  <ref_mols>  (30) 
c0692a,c1371a

>  <alias>  (30) 
None

>  <original ID>  (30) 
DJLJMRWSFFVBRQ-UHFFFAOYSA-N

>  <exports>  (30) 
['/opt/xchem-fragalysis-2/maxwin/CHIKV_HIPPO/hippo_prod/CHIKV_prod11c_recipes/Recipe_1GJWBFH_poses.sdf', '/opt/xchem-fragalysis-2/maxwin/CHIKV_HIPPO/hippo_prod/CHIKV_prod11c_recipes/Recipe_1GJXK8G_poses.sdf', '/opt/xchem-fragalysis-2/maxwin/CHIKV_HIPPO/hippo_prod/CHIKV_prod11c_recipes/Recipe_1GJXW46_poses.sdf']

>  <method>  (30) 
None

>  <submitter_email>  (30) 
None

>  <submitter_name>  (30) 
None

$$$$
BPQDCDFMWBLKPY-UHFFFAOYSA-N
     RDKit          3D

 23 24  0  0  0  0  0  0  0  0999 V2000
   15.6776   10.1824   13.6178 C   0  0  0  0  0  0  0  0  0  0  0  0
   15.4752    9.7142   12.2124 C   0  0  0  0  0  0  0  0  0  0  0  0
   14.7879    8.4916   12.0511 C   0  0  0  0  0  0  0  0  0  0  0  0
   14.3846    8.0396   10.7953 C   0  0  0  0  0  0  0  0  0  0  0  0
   13.4395    6.5978   10.6794 Cl  0  0  0  0  0  0  0  0  0  0  0  0
   14.6551    8.8014    9.6659 C   0  0  0  0  0  0  0  0  0  0  0  0
   13.9890    8.5995    8.4461 N   0  0  0  0  0  0  0  0  0  0  0  0
   15.4253    9.9524    9.8157 C   0  0  0  0  0  0  0  0  0  0  0  0
   15.8978   10.3972   11.0662 C   0  0  0  0  0  0  0  0  0  0  0  0
   16.8608   11.4344   10.9781 N   0  0  0  0  0  0  0  0  0  0  0  0
   17.5072   12.1865   11.9420 C   0  0  0  0  0  0  0  0  0  0  0  0
   17.0627   12.4317   13.0540 O   0  0  0  0  0  0  0  0  0  0  0  0
   18.8856   12.7123   11.6112 C   0  0  0  0  0  0  0  0  0  0  0  0
   19.7658   11.9521   10.8426 C   0  0  0  0  0  0  0  0  0  0  0  0
   19.2925   10.5876   10.0118 Cl  0  0  0  0  0  0  0  0  0  0  0  0
   21.0954   12.2700   10.6333 C   0  0  0  0  0  0  0  0  0  0  0  0
   21.5906   13.4280   11.1680 C   0  0  0  0  0  0  0  0  0  0  0  0
   22.9728   13.7378   10.7939 C   0  0  0  0  0  0  0  0  0  0  0  0
   23.7390   14.2891   11.7680 N   0  0  0  0  0  0  0  0  0  0  0  0
   23.3845   13.4778    9.6745 O   0  0  0  0  0  0  0  0  0  0  0  0
   20.7631   14.2460   11.9385 C   0  0  0  0  0  0  0  0  0  0  0  0
   19.4171   13.8841   12.1635 C   0  0  0  0  0  0  0  0  0  0  0  0
   18.4634   15.0064   13.0624 Cl  0  0  0  0  0  0  0  0  0  0  0  0
  1  2  1  0
  2  3  2  0
  3  4  1  0
  4  5  1  0
  4  6  2  0
  6  7  1  0
  6  8  1  0
  8  9  2  0
  9 10  1  0
 10 11  1  0
 11 12  2  0
 11 13  1  0
 13 14  2  0
 14 15  1  0
 14 16  1  0
 16 17  2  0
 17 18  1  0
 18 19  1  0
 18 20  2  0
 17 21  1  0
 21 22  2  0
 22 23  1  0
  9  2  1  0
 22 13  1  0
M  END
>  <HIPPO ID>  (31) 
13422

>  <ref_url>  (31) 
None

>  <ref_pdb>  (31) 
c0270a

>  <inchikey>  (31) 
BPQDCDFMWBLKPY-UHFFFAOYSA-N

>  <original SMILES>  (31) 
Cc1cc(Cl)c(N)cc1NC(=O)c1c(Cl)cc(C(N)=O)cc1Cl

>  <generation_date>  (31) 
None

>  <tags>  (31) 
[]

>  <ref_mols>  (31) 
c0692a,c1371a

>  <alias>  (31) 
None

>  <original ID>  (31) 
BPQDCDFMWBLKPY-UHFFFAOYSA-N

>  <exports>  (31) 
['/opt/xchem-fragalysis-2/maxwin/CHIKV_HIPPO/hippo_prod/CHIKV_prod11c_recipes/Recipe_1GJWBFH_poses.sdf', '/opt/xchem-fragalysis-2/maxwin/CHIKV_HIPPO/hippo_prod/CHIKV_prod11c_recipes/Recipe_1GJXK8G_poses.sdf', '/opt/xchem-fragalysis-2/maxwin/CHIKV_HIPPO/hippo_prod/CHIKV_prod11c_recipes/Recipe_1GJXW46_poses.sdf']

>  <method>  (31) 
None

>  <submitter_email>  (31) 
None

>  <submitter_name>  (31) 
None

$$$$
JNXPVPDOGTWTGV-UHFFFAOYSA-N
     RDKit          3D

 23 24  0  0  0  0  0  0  0  0999 V2000
   13.3293    6.3614   10.1536 C   0  0  0  0  0  0  0  0  0  0  0  0
   13.6466    7.1037   11.3221 O   0  0  0  0  0  0  0  0  0  0  0  0
   14.4789    8.1818   11.1730 C   0  0  0  0  0  0  0  0  0  0  0  0
   14.9114    8.6627    9.9430 C   0  0  0  0  0  0  0  0  0  0  0  0
   15.7196    9.7921    9.8890 C   0  0  0  0  0  0  0  0  0  0  0  0
   16.0968   10.4739   11.0524 C   0  0  0  0  0  0  0  0  0  0  0  0
   17.0476   11.4987   10.8977 N   0  0  0  0  0  0  0  0  0  0  0  0
   17.6929   12.2307   11.8810 C   0  0  0  0  0  0  0  0  0  0  0  0
   17.2387   12.4344   12.9991 O   0  0  0  0  0  0  0  0  0  0  0  0
   19.0861   12.7157   11.5541 C   0  0  0  0  0  0  0  0  0  0  0  0
   19.9466   11.8950   10.8258 C   0  0  0  0  0  0  0  0  0  0  0  0
   19.4232   10.5715    9.9636 Cl  0  0  0  0  0  0  0  0  0  0  0  0
   21.2829   12.1529   10.6104 C   0  0  0  0  0  0  0  0  0  0  0  0
   21.7854   13.3532   11.0244 C   0  0  0  0  0  0  0  0  0  0  0  0
   23.1376   13.5805   10.5235 C   0  0  0  0  0  0  0  0  0  0  0  0
   23.2253   14.4390    9.4799 N   0  0  0  0  0  0  0  0  0  0  0  0
   24.0751   12.9185   10.9315 O   0  0  0  0  0  0  0  0  0  0  0  0
   20.9827   14.2464   11.7356 C   0  0  0  0  0  0  0  0  0  0  0  0
   19.6416   13.9045   12.0347 C   0  0  0  0  0  0  0  0  0  0  0  0
   18.7105   15.0604   12.9121 Cl  0  0  0  0  0  0  0  0  0  0  0  0
   15.6287   10.0350   12.2799 C   0  0  0  0  0  0  0  0  0  0  0  0
   14.8457    8.8813   12.3397 C   0  0  0  0  0  0  0  0  0  0  0  0
   14.3244    8.3648   13.9097 Cl  0  0  0  0  0  0  0  0  0  0  0  0
  1  2  1  0
  2  3  1  0
  3  4  2  0
  4  5  1  0
  5  6  2  0
  6  7  1  0
  7  8  1  0
  8  9  2  0
  8 10  1  0
 10 11  2  0
 11 12  1  0
 11 13  1  0
 13 14  2  0
 14 15  1  0
 15 16  1  0
 15 17  2  0
 14 18  1  0
 18 19  2  0
 19 20  1  0
  6 21  1  0
 21 22  2  0
 22 23  1  0
 22  3  1  0
 19 10  1  0
M  END
>  <HIPPO ID>  (32) 
13615

>  <ref_url>  (32) 
None

>  <ref_pdb>  (32) 
c0270a

>  <inchikey>  (32) 
JNXPVPDOGTWTGV-UHFFFAOYSA-N

>  <original SMILES>  (32) 
COc1ccc(NC(=O)c2c(Cl)cc(C(N)=O)cc2Cl)cc1Cl

>  <generation_date>  (32) 
None

>  <tags>  (32) 
[]

>  <ref_mols>  (32) 
c0692a,c1371a

>  <alias>  (32) 
None

>  <original ID>  (32) 
JNXPVPDOGTWTGV-UHFFFAOYSA-N

>  <exports>  (32) 
['/opt/xchem-fragalysis-2/maxwin/CHIKV_HIPPO/hippo_prod/CHIKV_prod11c_recipes/Recipe_1GJWBFH_poses.sdf', '/opt/xchem-fragalysis-2/maxwin/CHIKV_HIPPO/hippo_prod/CHIKV_prod11c_recipes/Recipe_1GJXK8G_poses.sdf', '/opt/xchem-fragalysis-2/maxwin/CHIKV_HIPPO/hippo_prod/CHIKV_prod11c_recipes/Recipe_1GJXW46_poses.sdf']

>  <method>  (32) 
None

>  <submitter_email>  (32) 
None

>  <submitter_name>  (32) 
None

$$$$
ZAQGDJFYUNWQJW-UHFFFAOYSA-N
     RDKit          3D

 23 24  0  0  0  0  0  0  0  0999 V2000
   23.6973   14.2333   11.6837 N   0  0  0  0  0  0  0  0  0  0  0  0
   22.9189   13.6479   10.7396 C   0  0  0  0  0  0  0  0  0  0  0  0
   23.3060   13.3850    9.6120 O   0  0  0  0  0  0  0  0  0  0  0  0
   21.5490   13.3203   11.1487 C   0  0  0  0  0  0  0  0  0  0  0  0
   21.0405   12.1558   10.6320 C   0  0  0  0  0  0  0  0  0  0  0  0
   19.7032   11.8646   10.8379 C   0  0  0  0  0  0  0  0  0  0  0  0
   19.1716   10.5166    9.9996 Cl  0  0  0  0  0  0  0  0  0  0  0  0
   18.8374   12.6519   11.6006 C   0  0  0  0  0  0  0  0  0  0  0  0
   17.4352   12.1654   11.8989 C   0  0  0  0  0  0  0  0  0  0  0  0
   16.9410   12.4434   12.9796 O   0  0  0  0  0  0  0  0  0  0  0  0
   16.8093   11.4317   10.9088 N   0  0  0  0  0  0  0  0  0  0  0  0
   15.8568   10.3831   10.9486 C   0  0  0  0  0  0  0  0  0  0  0  0
   15.3854   10.0103    9.6739 C   0  0  0  0  0  0  0  0  0  0  0  0
   14.5772    8.9034    9.5042 C   0  0  0  0  0  0  0  0  0  0  0  0
   14.0325    8.6397    8.3127 F   0  0  0  0  0  0  0  0  0  0  0  0
   14.2937    8.0831   10.5734 C   0  0  0  0  0  0  0  0  0  0  0  0
   13.5249    6.9721   10.3918 O   0  0  0  0  0  0  0  0  0  0  0  0
   14.7255    8.4301   11.8457 C   0  0  0  0  0  0  0  0  0  0  0  0
   15.4590    9.6119   12.0510 C   0  0  0  0  0  0  0  0  0  0  0  0
   15.8581    9.9429   13.6886 Cl  0  0  0  0  0  0  0  0  0  0  0  0
   19.3864   13.8160   12.1498 C   0  0  0  0  0  0  0  0  0  0  0  0
   18.4533   14.9596   13.0423 Cl  0  0  0  0  0  0  0  0  0  0  0  0
   20.7351   14.1560   11.9164 C   0  0  0  0  0  0  0  0  0  0  0  0
  1  2  1  0
  2  3  2  0
  2  4  1  0
  4  5  2  0
  5  6  1  0
  6  7  1  0
  6  8  2  0
  8  9  1  0
  9 10  2  0
  9 11  1  0
 11 12  1  0
 12 13  2  0
 13 14  1  0
 14 15  1  0
 14 16  2  0
 16 17  1  0
 16 18  1  0
 18 19  2  0
 19 20  1  0
  8 21  1  0
 21 22  1  0
 21 23  2  0
 23  4  1  0
 19 12  1  0
M  END
>  <HIPPO ID>  (33) 
13637

>  <ref_url>  (33) 
None

>  <ref_pdb>  (33) 
c0270a

>  <inchikey>  (33) 
ZAQGDJFYUNWQJW-UHFFFAOYSA-N

>  <original SMILES>  (33) 
NC(=O)c1cc(Cl)c(C(=O)Nc2cc(F)c(O)cc2Cl)c(Cl)c1

>  <generation_date>  (33) 
None

>  <tags>  (33) 
[]

>  <ref_mols>  (33) 
c0692a,c1371a

>  <alias>  (33) 
None

>  <original ID>  (33) 
ZAQGDJFYUNWQJW-UHFFFAOYSA-N

>  <exports>  (33) 
['/opt/xchem-fragalysis-2/maxwin/CHIKV_HIPPO/hippo_prod/CHIKV_prod11c_recipes/Recipe_1GJWBFH_poses.sdf', '/opt/xchem-fragalysis-2/maxwin/CHIKV_HIPPO/hippo_prod/CHIKV_prod11c_recipes/Recipe_1GJXK8G_poses.sdf', '/opt/xchem-fragalysis-2/maxwin/CHIKV_HIPPO/hippo_prod/CHIKV_prod11c_recipes/Recipe_1GJXW46_poses.sdf']

>  <method>  (33) 
None

>  <submitter_email>  (33) 
None

>  <submitter_name>  (33) 
None

$$$$
VAYYGCWMWPELND-UHFFFAOYSA-N
     RDKit          3D

 23 24  0  0  0  0  0  0  0  0999 V2000
   13.3295    6.3050   10.1009 C   0  0  0  0  0  0  0  0  0  0  0  0
   13.5861    7.1004   11.2470 O   0  0  0  0  0  0  0  0  0  0  0  0
   14.4393    8.1560   11.0819 C   0  0  0  0  0  0  0  0  0  0  0  0
   14.9232    8.6085    9.8655 C   0  0  0  0  0  0  0  0  0  0  0  0
   15.7620    9.7165    9.8301 C   0  0  0  0  0  0  0  0  0  0  0  0
   16.1072   10.4080   10.9984 C   0  0  0  0  0  0  0  0  0  0  0  0
   17.0690   11.4237   10.8666 N   0  0  0  0  0  0  0  0  0  0  0  0
   17.6642   12.1701   11.8683 C   0  0  0  0  0  0  0  0  0  0  0  0
   17.1869   12.3359   12.9836 O   0  0  0  0  0  0  0  0  0  0  0  0
   19.0359   12.7224   11.5807 C   0  0  0  0  0  0  0  0  0  0  0  0
   19.9439   11.9850   10.8208 C   0  0  0  0  0  0  0  0  0  0  0  0
   19.5346   10.6145    9.9664 Cl  0  0  0  0  0  0  0  0  0  0  0  0
   21.2662   12.3308   10.6367 C   0  0  0  0  0  0  0  0  0  0  0  0
   21.7294   13.4853   11.2021 C   0  0  0  0  0  0  0  0  0  0  0  0
   23.1200   13.7958   10.8701 C   0  0  0  0  0  0  0  0  0  0  0  0
   23.8576   14.3372   11.8710 N   0  0  0  0  0  0  0  0  0  0  0  0
   23.5651   13.5359    9.7631 O   0  0  0  0  0  0  0  0  0  0  0  0
   20.8745   14.2801   11.9689 C   0  0  0  0  0  0  0  0  0  0  0  0
   19.5302   13.8950   12.1592 C   0  0  0  0  0  0  0  0  0  0  0  0
   18.5299   14.9822   13.0493 Cl  0  0  0  0  0  0  0  0  0  0  0  0
   15.5754    9.9997   12.2098 C   0  0  0  0  0  0  0  0  0  0  0  0
   14.7665    8.8714   12.2409 C   0  0  0  0  0  0  0  0  0  0  0  0
   14.2385    8.5070   13.4196 F   0  0  0  0  0  0  0  0  0  0  0  0
  1  2  1  0
  2  3  1  0
  3  4  2  0
  4  5  1  0
  5  6  2  0
  6  7  1  0
  7  8  1  0
  8  9  2  0
  8 10  1  0
 10 11  2  0
 11 12  1  0
 11 13  1  0
 13 14  2  0
 14 15  1  0
 15 16  1  0
 15 17  2  0
 14 18  1  0
 18 19  2  0
 19 20  1  0
  6 21  1  0
 21 22  2  0
 22 23  1  0
 22  3  1  0
 19 10  1  0
M  END
>  <HIPPO ID>  (34) 
13644

>  <ref_url>  (34) 
None

>  <ref_pdb>  (34) 
c0270a

>  <inchikey>  (34) 
VAYYGCWMWPELND-UHFFFAOYSA-N

>  <original SMILES>  (34) 
COc1ccc(NC(=O)c2c(Cl)cc(C(N)=O)cc2Cl)cc1F

>  <generation_date>  (34) 
None

>  <tags>  (34) 
[]

>  <ref_mols>  (34) 
c0692a,c1371a

>  <alias>  (34) 
None

>  <original ID>  (34) 
VAYYGCWMWPELND-UHFFFAOYSA-N

>  <exports>  (34) 
['/opt/xchem-fragalysis-2/maxwin/CHIKV_HIPPO/hippo_prod/CHIKV_prod11c_recipes/Recipe_1GJWBFH_poses.sdf', '/opt/xchem-fragalysis-2/maxwin/CHIKV_HIPPO/hippo_prod/CHIKV_prod11c_recipes/Recipe_1GJXK8G_poses.sdf', '/opt/xchem-fragalysis-2/maxwin/CHIKV_HIPPO/hippo_prod/CHIKV_prod11c_recipes/Recipe_1GJXW46_poses.sdf']

>  <method>  (34) 
None

>  <submitter_email>  (34) 
None

>  <submitter_name>  (34) 
None

$$$$
ASAAPRSTPXPBNA-UHFFFAOYSA-N
     RDKit          3D

 23 24  0  0  0  0  0  0  0  0999 V2000
   23.5022   14.2756    9.5976 N   0  0  0  0  0  0  0  0  0  0  0  0
   23.2375   13.2730   10.4647 C   0  0  0  0  0  0  0  0  0  0  0  0
   24.0594   12.4257   10.7689 O   0  0  0  0  0  0  0  0  0  0  0  0
   21.8583   13.1685   10.9411 C   0  0  0  0  0  0  0  0  0  0  0  0
   21.2300   12.0069   10.5596 C   0  0  0  0  0  0  0  0  0  0  0  0
   19.8885   11.8566   10.8490 C   0  0  0  0  0  0  0  0  0  0  0  0
   19.1580   10.5536   10.0716 Cl  0  0  0  0  0  0  0  0  0  0  0  0
   19.1611   12.7687   11.6222 C   0  0  0  0  0  0  0  0  0  0  0  0
   17.7745   12.4086   12.0779 C   0  0  0  0  0  0  0  0  0  0  0  0
   17.4233   12.6187   13.2295 O   0  0  0  0  0  0  0  0  0  0  0  0
   17.0054   11.7532   11.1510 N   0  0  0  0  0  0  0  0  0  0  0  0
   16.0898   10.7211   11.3831 C   0  0  0  0  0  0  0  0  0  0  0  0
   15.5884   10.1293   10.2335 C   0  0  0  0  0  0  0  0  0  0  0  0
   14.7757    9.0227   10.3391 C   0  0  0  0  0  0  0  0  0  0  0  0
   13.6574    8.5786    8.7240 I   0  0  0  0  0  0  0  0  0  0  0  0
   14.5464    8.4103   11.5617 C   0  0  0  0  0  0  0  0  0  0  0  0
   13.7864    7.2714   11.6308 O   0  0  0  0  0  0  0  0  0  0  0  0
   14.9813    9.0523   12.7196 C   0  0  0  0  0  0  0  0  0  0  0  0
   14.3765    8.4122   14.6109 I   0  0  0  0  0  0  0  0  0  0  0  0
   15.7453   10.2203   12.6337 C   0  0  0  0  0  0  0  0  0  0  0  0
   19.8253   13.9229   12.0359 C   0  0  0  0  0  0  0  0  0  0  0  0
   19.0174   15.1706   12.9086 Cl  0  0  0  0  0  0  0  0  0  0  0  0
   21.1691   14.1409   11.6699 C   0  0  0  0  0  0  0  0  0  0  0  0
  1  2  1  0
  2  3  2  0
  2  4  1  0
  4  5  2  0
  5  6  1  0
  6  7  1  0
  6  8  2  0
  8  9  1  0
  9 10  2  0
  9 11  1  0
 11 12  1  0
 12 13  2  0
 13 14  1  0
 14 15  1  0
 14 16  2  0
 16 17  1  0
 16 18  1  0
 18 19  1  0
 18 20  2  0
  8 21  1  0
 21 22  1  0
 21 23  2  0
 23  4  1  0
 20 12  1  0
M  END
>  <HIPPO ID>  (35) 
13801

>  <ref_url>  (35) 
None

>  <ref_pdb>  (35) 
c0270a

>  <inchikey>  (35) 
ASAAPRSTPXPBNA-UHFFFAOYSA-N

>  <original SMILES>  (35) 
NC(=O)c1cc(Cl)c(C(=O)Nc2cc(I)c(O)c(I)c2)c(Cl)c1

>  <generation_date>  (35) 
None

>  <tags>  (35) 
[]

>  <ref_mols>  (35) 
c0692a,c1371a

>  <alias>  (35) 
None

>  <original ID>  (35) 
ASAAPRSTPXPBNA-UHFFFAOYSA-N

>  <exports>  (35) 
['/opt/xchem-fragalysis-2/maxwin/CHIKV_HIPPO/hippo_prod/CHIKV_prod11c_recipes/Recipe_1GJWBFH_poses.sdf', '/opt/xchem-fragalysis-2/maxwin/CHIKV_HIPPO/hippo_prod/CHIKV_prod11c_recipes/Recipe_1GJXK8G_poses.sdf', '/opt/xchem-fragalysis-2/maxwin/CHIKV_HIPPO/hippo_prod/CHIKV_prod11c_recipes/Recipe_1GJXW46_poses.sdf']

>  <method>  (35) 
None

>  <submitter_email>  (35) 
None

>  <submitter_name>  (35) 
None

$$$$
UFHUHRFWKBEZPN-UHFFFAOYSA-N
     RDKit          3D

 23 24  0  0  0  0  0  0  0  0999 V2000
   23.6580   14.2998   11.7599 N   0  0  0  0  0  0  0  0  0  0  0  0
   22.9081   13.7110   10.7948 C   0  0  0  0  0  0  0  0  0  0  0  0
   23.3245   13.4576    9.6754 O   0  0  0  0  0  0  0  0  0  0  0  0
   21.5358   13.3603   11.1735 C   0  0  0  0  0  0  0  0  0  0  0  0
   21.0643   12.1940   10.6287 C   0  0  0  0  0  0  0  0  0  0  0  0
   19.7359   11.8646   10.8176 C   0  0  0  0  0  0  0  0  0  0  0  0
   19.2475   10.5169    9.9599 Cl  0  0  0  0  0  0  0  0  0  0  0  0
   18.8445   12.6126   11.5867 C   0  0  0  0  0  0  0  0  0  0  0  0
   17.4801   12.0476   11.8924 C   0  0  0  0  0  0  0  0  0  0  0  0
   17.0564   12.1341   13.0378 O   0  0  0  0  0  0  0  0  0  0  0  0
   16.8381   11.3792   10.8614 N   0  0  0  0  0  0  0  0  0  0  0  0
   15.9262   10.3093   10.9412 C   0  0  0  0  0  0  0  0  0  0  0  0
   15.4739    9.7789    9.7211 C   0  0  0  0  0  0  0  0  0  0  0  0
   14.6591    8.6508    9.6813 C   0  0  0  0  0  0  0  0  0  0  0  0
   14.3333    8.0168   10.8764 C   0  0  0  0  0  0  0  0  0  0  0  0
   13.3852    6.8964   10.8618 N   0  0  0  0  0  4  0  0  0  0  0  0
   12.8807    6.5629   11.9443 O   0  0  0  0  0  0  0  0  0  0  0  0
   13.1055    6.3842    9.7729 O   0  0  0  0  0  1  0  0  0  0  0  0
   14.7919    8.5261   12.1026 C   0  0  0  0  0  0  0  0  0  0  0  0
   15.5598    9.6940   12.1335 C   0  0  0  0  0  0  0  0  0  0  0  0
   19.3506   13.7805   12.1613 C   0  0  0  0  0  0  0  0  0  0  0  0
   18.3625   14.8640   13.0669 Cl  0  0  0  0  0  0  0  0  0  0  0  0
   20.6912   14.1628   11.9463 C   0  0  0  0  0  0  0  0  0  0  0  0
  1  2  1  0
  2  3  2  0
  2  4  1  0
  4  5  2  0
  5  6  1  0
  6  7  1  0
  6  8  2  0
  8  9  1  0
  9 10  2  0
  9 11  1  0
 11 12  1  0
 12 13  2  0
 13 14  1  0
 14 15  2  0
 15 16  1  0
 16 17  2  0
 16 18  1  0
 15 19  1  0
 19 20  2  0
  8 21  1  0
 21 22  1  0
 21 23  2  0
 23  4  1  0
 20 12  1  0
M  CHG  2  16   1  18  -1
M  END
>  <HIPPO ID>  (36) 
13918

>  <ref_url>  (36) 
None

>  <ref_pdb>  (36) 
c0270a

>  <inchikey>  (36) 
UFHUHRFWKBEZPN-UHFFFAOYSA-N

>  <original SMILES>  (36) 
NC(=O)c1cc(Cl)c(C(=O)Nc2ccc([N+](=O)[O-])cc2)c(Cl)c1

>  <generation_date>  (36) 
None

>  <tags>  (36) 
[]

>  <ref_mols>  (36) 
c0692a,c1371a

>  <alias>  (36) 
None

>  <original ID>  (36) 
UFHUHRFWKBEZPN-UHFFFAOYSA-N

>  <exports>  (36) 
['/opt/xchem-fragalysis-2/maxwin/CHIKV_HIPPO/hippo_prod/CHIKV_prod11c_recipes/Recipe_1GJWBFH_poses.sdf', '/opt/xchem-fragalysis-2/maxwin/CHIKV_HIPPO/hippo_prod/CHIKV_prod11c_recipes/Recipe_1GJXK8G_poses.sdf', '/opt/xchem-fragalysis-2/maxwin/CHIKV_HIPPO/hippo_prod/CHIKV_prod11c_recipes/Recipe_1GJXW46_poses.sdf']

>  <method>  (36) 
None

>  <submitter_email>  (36) 
None

>  <submitter_name>  (36) 
None

$$$$
GJUVLJWJLCGUNX-UHFFFAOYSA-N
     RDKit          3D

 23 24  0  0  0  0  0  0  0  0999 V2000
   23.5771   14.2834   11.7163 N   0  0  0  0  0  0  0  0  0  0  0  0
   22.8257   13.6721   10.7658 C   0  0  0  0  0  0  0  0  0  0  0  0
   23.2406   13.4019    9.6498 O   0  0  0  0  0  0  0  0  0  0  0  0
   21.4535   13.3251   11.1547 C   0  0  0  0  0  0  0  0  0  0  0  0
   20.9677   12.1562   10.6258 C   0  0  0  0  0  0  0  0  0  0  0  0
   19.6332   11.8426   10.8172 C   0  0  0  0  0  0  0  0  0  0  0  0
   19.1248   10.4875    9.9842 Cl  0  0  0  0  0  0  0  0  0  0  0  0
   18.7479   12.6068   11.5757 C   0  0  0  0  0  0  0  0  0  0  0  0
   17.3708   12.0652   11.8807 C   0  0  0  0  0  0  0  0  0  0  0  0
   16.9248   12.2361   13.0064 O   0  0  0  0  0  0  0  0  0  0  0  0
   16.7230   11.3601   10.8753 N   0  0  0  0  0  0  0  0  0  0  0  0
   15.8267   10.2652   10.9875 C   0  0  0  0  0  0  0  0  0  0  0  0
   15.3245    9.7324    9.7889 C   0  0  0  0  0  0  0  0  0  0  0  0
   15.5553   10.3604    8.6344 F   0  0  0  0  0  0  0  0  0  0  0  0
   14.5731    8.5688    9.7373 C   0  0  0  0  0  0  0  0  0  0  0  0
   14.3315    7.8852   10.9128 C   0  0  0  0  0  0  0  0  0  0  0  0
   13.3786    6.4563   10.8707 Cl  0  0  0  0  0  0  0  0  0  0  0  0
   14.7972    8.3898   12.1265 C   0  0  0  0  0  0  0  0  0  0  0  0
   15.5169    9.5868   12.1602 C   0  0  0  0  0  0  0  0  0  0  0  0
   15.9664    9.9957   13.3502 F   0  0  0  0  0  0  0  0  0  0  0  0
   19.2724   13.7731   12.1419 C   0  0  0  0  0  0  0  0  0  0  0  0
   18.3098   14.8790   13.0491 Cl  0  0  0  0  0  0  0  0  0  0  0  0
   20.6172   14.1406   11.9212 C   0  0  0  0  0  0  0  0  0  0  0  0
  1  2  1  0
  2  3  2  0
  2  4  1  0
  4  5  2  0
  5  6  1  0
  6  7  1  0
  6  8  2  0
  8  9  1  0
  9 10  2  0
  9 11  1  0
 11 12  1  0
 12 13  2  0
 13 14  1  0
 13 15  1  0
 15 16  2  0
 16 17  1  0
 16 18  1  0
 18 19  2  0
 19 20  1  0
  8 21  1  0
 21 22  1  0
 21 23  2  0
 23  4  1  0
 19 12  1  0
M  END
>  <HIPPO ID>  (37) 
13959

>  <ref_url>  (37) 
None

>  <ref_pdb>  (37) 
c0270a

>  <inchikey>  (37) 
GJUVLJWJLCGUNX-UHFFFAOYSA-N

>  <original SMILES>  (37) 
NC(=O)c1cc(Cl)c(C(=O)Nc2c(F)cc(Cl)cc2F)c(Cl)c1

>  <generation_date>  (37) 
None

>  <tags>  (37) 
[]

>  <ref_mols>  (37) 
c0692a,c1371a

>  <alias>  (37) 
None

>  <original ID>  (37) 
GJUVLJWJLCGUNX-UHFFFAOYSA-N

>  <exports>  (37) 
['/opt/xchem-fragalysis-2/maxwin/CHIKV_HIPPO/hippo_prod/CHIKV_prod11c_recipes/Recipe_1GJWBFH_poses.sdf', '/opt/xchem-fragalysis-2/maxwin/CHIKV_HIPPO/hippo_prod/CHIKV_prod11c_recipes/Recipe_1GJXK8G_poses.sdf', '/opt/xchem-fragalysis-2/maxwin/CHIKV_HIPPO/hippo_prod/CHIKV_prod11c_recipes/Recipe_1GJXW46_poses.sdf']

>  <method>  (37) 
None

>  <submitter_email>  (37) 
None

>  <submitter_name>  (37) 
None

$$$$
OTKUJOZDYICEQK-UHFFFAOYSA-N
     RDKit          3D

 24 25  0  0  0  0  0  0  0  0999 V2000
   23.8342   14.2483   11.7371 N   0  0  0  0  0  0  0  0  0  0  0  0
   23.0684   13.6975   10.7630 C   0  0  0  0  0  0  0  0  0  0  0  0
   23.4745   13.4493    9.6389 O   0  0  0  0  0  0  0  0  0  0  0  0
   21.6904   13.3758   11.1387 C   0  0  0  0  0  0  0  0  0  0  0  0
   21.2035   12.2118   10.6035 C   0  0  0  0  0  0  0  0  0  0  0  0
   19.8715   11.9034   10.7943 C   0  0  0  0  0  0  0  0  0  0  0  0
   19.3760   10.5466    9.9517 Cl  0  0  0  0  0  0  0  0  0  0  0  0
   18.9904   12.6793   11.5490 C   0  0  0  0  0  0  0  0  0  0  0  0
   17.6107   12.1603   11.8494 C   0  0  0  0  0  0  0  0  0  0  0  0
   17.1562   12.3291   12.9737 O   0  0  0  0  0  0  0  0  0  0  0  0
   16.9856   11.4253   10.8533 N   0  0  0  0  0  0  0  0  0  0  0  0
   16.0497   10.3895   11.0066 C   0  0  0  0  0  0  0  0  0  0  0  0
   15.6890    9.6770    9.8500 C   0  0  0  0  0  0  0  0  0  0  0  0
   14.8516    8.5694    9.9236 C   0  0  0  0  0  0  0  0  0  0  0  0
   14.3938    8.1505   11.1600 C   0  0  0  0  0  0  0  0  0  0  0  0
   13.5017    7.1504   11.1831 F   0  0  0  0  0  0  0  0  0  0  0  0
   14.7444    8.8634   12.3103 C   0  0  0  0  0  0  0  0  0  0  0  0
   14.1403    8.5290   13.5907 N   0  0  0  0  0  4  0  0  0  0  0  0
   13.9629    9.4550   14.3985 O   0  0  0  0  0  0  0  0  0  0  0  0
   13.7822    7.3616   13.7829 O   0  0  0  0  0  1  0  0  0  0  0  0
   15.5576    9.9942   12.2408 C   0  0  0  0  0  0  0  0  0  0  0  0
   19.5132   13.8454   12.1142 C   0  0  0  0  0  0  0  0  0  0  0  0
   18.5452   14.9576   13.0088 Cl  0  0  0  0  0  0  0  0  0  0  0  0
   20.8597   14.2007   11.9019 C   0  0  0  0  0  0  0  0  0  0  0  0
  1  2  1  0
  2  3  2  0
  2  4  1  0
  4  5  2  0
  5  6  1  0
  6  7  1  0
  6  8  2  0
  8  9  1  0
  9 10  2  0
  9 11  1  0
 11 12  1  0
 12 13  2  0
 13 14  1  0
 14 15  2  0
 15 16  1  0
 15 17  1  0
 17 18  1  0
 18 19  2  0
 18 20  1  0
 17 21  2  0
  8 22  1  0
 22 23  1  0
 22 24  2  0
 24  4  1  0
 21 12  1  0
M  CHG  2  18   1  20  -1
M  END
>  <HIPPO ID>  (38) 
14217

>  <ref_url>  (38) 
None

>  <ref_pdb>  (38) 
c0270a

>  <inchikey>  (38) 
OTKUJOZDYICEQK-UHFFFAOYSA-N

>  <original SMILES>  (38) 
NC(=O)c1cc(Cl)c(C(=O)Nc2ccc(F)c([N+](=O)[O-])c2)c(Cl)c1

>  <generation_date>  (38) 
None

>  <tags>  (38) 
[]

>  <ref_mols>  (38) 
c0692a,c1371a

>  <alias>  (38) 
None

>  <original ID>  (38) 
OTKUJOZDYICEQK-UHFFFAOYSA-N

>  <exports>  (38) 
['/opt/xchem-fragalysis-2/maxwin/CHIKV_HIPPO/hippo_prod/CHIKV_prod11c_recipes/Recipe_1GJWBFH_poses.sdf', '/opt/xchem-fragalysis-2/maxwin/CHIKV_HIPPO/hippo_prod/CHIKV_prod11c_recipes/Recipe_1GJXK8G_poses.sdf', '/opt/xchem-fragalysis-2/maxwin/CHIKV_HIPPO/hippo_prod/CHIKV_prod11c_recipes/Recipe_1GJXW46_poses.sdf']

>  <method>  (38) 
None

>  <submitter_email>  (38) 
None

>  <submitter_name>  (38) 
None

$$$$
ALADTVBLYHSRSI-UHFFFAOYSA-N
     RDKit          3D

 24 25  0  0  0  0  0  0  0  0999 V2000
   23.7377   14.2404   11.7213 N   0  0  0  0  0  0  0  0  0  0  0  0
   22.9722   13.6498   10.7700 C   0  0  0  0  0  0  0  0  0  0  0  0
   23.3766   13.3739    9.6517 O   0  0  0  0  0  0  0  0  0  0  0  0
   21.5944   13.3330   11.1588 C   0  0  0  0  0  0  0  0  0  0  0  0
   21.0889   12.1694   10.6404 C   0  0  0  0  0  0  0  0  0  0  0  0
   19.7443   11.8900   10.8162 C   0  0  0  0  0  0  0  0  0  0  0  0
   19.2434   10.5273    9.9850 Cl  0  0  0  0  0  0  0  0  0  0  0  0
   18.8602   12.6940   11.5405 C   0  0  0  0  0  0  0  0  0  0  0  0
   17.4239   12.2603   11.7564 C   0  0  0  0  0  0  0  0  0  0  0  0
   16.8076   12.6662   12.7283 O   0  0  0  0  0  0  0  0  0  0  0  0
   16.8580   11.4145   10.8163 N   0  0  0  0  0  0  0  0  0  0  0  0
   15.8919   10.3908   10.9544 C   0  0  0  0  0  0  0  0  0  0  0  0
   15.5680    9.7303    9.7529 C   0  0  0  0  0  0  0  0  0  0  0  0
   14.7981    8.5675    9.7311 C   0  0  0  0  0  0  0  0  0  0  0  0
   14.3938    7.9897   10.9194 C   0  0  0  0  0  0  0  0  0  0  0  0
   14.6538    8.6583   12.1077 C   0  0  0  0  0  0  0  0  0  0  0  0
   14.1604    8.1463   13.2446 F   0  0  0  0  0  0  0  0  0  0  0  0
   15.3396    9.8709   12.1177 C   0  0  0  0  0  0  0  0  0  0  0  0
   15.4791   10.4627   13.4072 N   0  0  0  0  0  4  0  0  0  0  0  0
   14.4911   11.0421   13.8758 O   0  0  0  0  0  0  0  0  0  0  0  0
   16.5470   10.2521   13.9919 O   0  0  0  0  0  1  0  0  0  0  0  0
   19.4136   13.8488   12.1096 C   0  0  0  0  0  0  0  0  0  0  0  0
   18.4896   15.0007   13.0021 Cl  0  0  0  0  0  0  0  0  0  0  0  0
   20.7722   14.1738   11.9097 C   0  0  0  0  0  0  0  0  0  0  0  0
  1  2  1  0
  2  3  2  0
  2  4  1  0
  4  5  2  0
  5  6  1  0
  6  7  1  0
  6  8  2  0
  8  9  1  0
  9 10  2  0
  9 11  1  0
 11 12  1  0
 12 13  2  0
 13 14  1  0
 14 15  2  0
 15 16  1  0
 16 17  1  0
 16 18  2  0
 18 19  1  0
 19 20  2  0
 19 21  1  0
  8 22  1  0
 22 23  1  0
 22 24  2  0
 24  4  1  0
 18 12  1  0
M  CHG  2  19   1  21  -1
M  END
>  <HIPPO ID>  (39) 
14219

>  <ref_url>  (39) 
None

>  <ref_pdb>  (39) 
c0270a

>  <inchikey>  (39) 
ALADTVBLYHSRSI-UHFFFAOYSA-N

>  <original SMILES>  (39) 
NC(=O)c1cc(Cl)c(C(=O)Nc2cccc(F)c2[N+](=O)[O-])c(Cl)c1

>  <generation_date>  (39) 
None

>  <tags>  (39) 
[]

>  <ref_mols>  (39) 
c0692a,c1371a

>  <alias>  (39) 
None

>  <original ID>  (39) 
ALADTVBLYHSRSI-UHFFFAOYSA-N

>  <exports>  (39) 
['/opt/xchem-fragalysis-2/maxwin/CHIKV_HIPPO/hippo_prod/CHIKV_prod11c_recipes/Recipe_1GJWBFH_poses.sdf', '/opt/xchem-fragalysis-2/maxwin/CHIKV_HIPPO/hippo_prod/CHIKV_prod11c_recipes/Recipe_1GJXK8G_poses.sdf', '/opt/xchem-fragalysis-2/maxwin/CHIKV_HIPPO/hippo_prod/CHIKV_prod11c_recipes/Recipe_1GJXW46_poses.sdf']

>  <method>  (39) 
None

>  <submitter_email>  (39) 
None

>  <submitter_name>  (39) 
None

$$$$
UIDDCTJNKRHACT-UHFFFAOYSA-N
     RDKit          3D

 25 26  0  0  0  0  0  0  0  0999 V2000
   23.6855   14.2744   11.7667 N   0  0  0  0  0  0  0  0  0  0  0  0
   22.9341   13.6599   10.8187 C   0  0  0  0  0  0  0  0  0  0  0  0
   23.3537   13.3712    9.7090 O   0  0  0  0  0  0  0  0  0  0  0  0
   21.5547   13.3364   11.1995 C   0  0  0  0  0  0  0  0  0  0  0  0
   21.0565   12.1741   10.6741 C   0  0  0  0  0  0  0  0  0  0  0  0
   19.7087   11.8928   10.8302 C   0  0  0  0  0  0  0  0  0  0  0  0
   19.2384   10.5271    9.9848 Cl  0  0  0  0  0  0  0  0  0  0  0  0
   18.8083   12.6956   11.5396 C   0  0  0  0  0  0  0  0  0  0  0  0
   17.3465   12.2942   11.6817 C   0  0  0  0  0  0  0  0  0  0  0  0
   16.6292   12.8107   12.5273 O   0  0  0  0  0  0  0  0  0  0  0  0
   16.8441   11.3958   10.7546 N   0  0  0  0  0  0  0  0  0  0  0  0
   15.8677   10.3873   10.8704 C   0  0  0  0  0  0  0  0  0  0  0  0
   15.4200    9.8645    9.6439 C   0  0  0  0  0  0  0  0  0  0  0  0
   14.5625    8.7782    9.6021 C   0  0  0  0  0  0  0  0  0  0  0  0
   13.9799    8.4440    8.4479 F   0  0  0  0  0  0  0  0  0  0  0  0
   14.2538    8.1036   10.7642 C   0  0  0  0  0  0  0  0  0  0  0  0
   13.3980    7.0734   10.7388 F   0  0  0  0  0  0  0  0  0  0  0  0
   14.6863    8.5958   11.9911 C   0  0  0  0  0  0  0  0  0  0  0  0
   15.4112    9.7949   12.0507 C   0  0  0  0  0  0  0  0  0  0  0  0
   15.6843   10.3278   13.3860 C   0  0  0  0  0  0  0  0  0  0  0  0
   16.7706   10.5788   13.8597 O   0  0  0  0  0  0  0  0  0  0  0  0
   14.5419   10.5103   14.0706 O   0  0  0  0  0  0  0  0  0  0  0  0
   19.3595   13.8424   12.1288 C   0  0  0  0  0  0  0  0  0  0  0  0
   18.4372   14.9855   13.0347 Cl  0  0  0  0  0  0  0  0  0  0  0  0
   20.7225   14.1682   11.9485 C   0  0  0  0  0  0  0  0  0  0  0  0
  1  2  1  0
  2  3  2  0
  2  4  1  0
  4  5  2  0
  5  6  1  0
  6  7  1  0
  6  8  2  0
  8  9  1  0
  9 10  2  0
  9 11  1  0
 11 12  1  0
 12 13  2  0
 13 14  1  0
 14 15  1  0
 14 16  2  0
 16 17  1  0
 16 18  1  0
 18 19  2  0
 19 20  1  0
 20 21  2  0
 20 22  1  0
  8 23  1  0
 23 24  1  0
 23 25  2  0
 25  4  1  0
 19 12  1  0
M  END
>  <HIPPO ID>  (40) 
14378

>  <ref_url>  (40) 
None

>  <ref_pdb>  (40) 
c0270a

>  <inchikey>  (40) 
UIDDCTJNKRHACT-UHFFFAOYSA-N

>  <original SMILES>  (40) 
NC(=O)c1cc(Cl)c(C(=O)Nc2cc(F)c(F)cc2C(=O)O)c(Cl)c1

>  <generation_date>  (40) 
None

>  <tags>  (40) 
[]

>  <ref_mols>  (40) 
c0692a,c1371a

>  <alias>  (40) 
None

>  <original ID>  (40) 
UIDDCTJNKRHACT-UHFFFAOYSA-N

>  <exports>  (40) 
['/opt/xchem-fragalysis-2/maxwin/CHIKV_HIPPO/hippo_prod/CHIKV_prod11c_recipes/Recipe_1GJWBFH_poses.sdf', '/opt/xchem-fragalysis-2/maxwin/CHIKV_HIPPO/hippo_prod/CHIKV_prod11c_recipes/Recipe_1GJXK8G_poses.sdf', '/opt/xchem-fragalysis-2/maxwin/CHIKV_HIPPO/hippo_prod/CHIKV_prod11c_recipes/Recipe_1GJXW46_poses.sdf']

>  <method>  (40) 
None

>  <submitter_email>  (40) 
None

>  <submitter_name>  (40) 
None

$$$$
JNAFQHXNLQQKAQ-UHFFFAOYSA-N
     RDKit          3D

 22 23  0  0  0  0  0  0  0  0999 V2000
   20.9032   11.9953   10.9476 C   0  0  0  0  0  0  0  0  0  0  0  0
   19.5548   12.0514   11.0170 C   0  0  0  0  0  0  0  0  0  0  0  0
   18.8258   13.0229   11.6254 O   0  0  0  0  0  0  0  0  0  0  0  0
   19.5202   14.2118   11.9138 C   0  0  0  0  0  0  0  0  0  0  0  0
   18.7846   11.0515   10.2302 C   0  0  0  0  0  0  0  0  0  0  0  0
   19.4400   10.3497    9.4704 O   0  0  0  0  0  0  0  0  0  0  0  0
   17.4235   10.9938   10.1099 N   0  0  0  0  0  0  0  0  0  0  0  0
   16.4853   10.8771   11.1196 C   0  0  0  0  0  0  0  0  0  0  0  0
   16.0184   11.9533   11.8669 C   0  0  0  0  0  0  0  0  0  0  0  0
   15.0476   11.7476   12.8418 C   0  0  0  0  0  0  0  0  0  0  0  0
   14.6038   10.4537   13.0990 C   0  0  0  0  0  0  0  0  0  0  0  0
   15.0693    9.3909   12.3144 C   0  0  0  0  0  0  0  0  0  0  0  0
   14.7494    7.9741   12.5445 C   0  0  0  0  0  0  0  0  0  0  0  0
   14.7748    7.1767   11.6141 O   0  0  0  0  0  0  0  0  0  0  0  0
   14.5114    7.6278   13.8479 N   0  0  0  0  0  0  0  0  0  0  0  0
   14.1286    6.2828   14.1840 C   0  0  0  0  0  0  0  0  0  0  0  0
   12.6775    6.1125   13.8746 C   0  0  0  0  0  0  0  0  0  0  0  0
   12.1141    5.4097   12.8280 C   0  0  0  0  0  0  0  0  0  0  0  0
   10.6923    5.4545   12.8494 C   0  0  0  0  0  0  0  0  0  0  0  0
   10.2168    6.2070   13.8989 C   0  0  0  0  0  0  0  0  0  0  0  0
   11.4801    6.8589   14.8488 S   0  0  0  0  0  0  0  0  0  0  0  0
   15.9439    9.6184   11.2727 C   0  0  0  0  0  0  0  0  0  0  0  0
  1  2  2  0
  2  3  1  0
  3  4  1  0
  2  5  1  0
  5  6  2  0
  5  7  1  0
  7  8  1  0
  8  9  2  0
  9 10  1  0
 10 11  2  0
 11 12  1  0
 12 13  1  0
 13 14  2  0
 13 15  1  0
 15 16  1  0
 16 17  1  0
 17 18  2  0
 18 19  1  0
 19 20  2  0
 20 21  1  0
 12 22  2  0
 22  8  1  0
 21 17  1  0
M  END
>  <HIPPO ID>  (41) 
15549

>  <ref_url>  (41) 
None

>  <ref_pdb>  (41) 
c0270a

>  <inchikey>  (41) 
JNAFQHXNLQQKAQ-UHFFFAOYSA-N

>  <original SMILES>  (41) 
C=C(OC)C(=O)Nc1cccc(C(=O)NCc2cccs2)c1

>  <generation_date>  (41) 
None

>  <tags>  (41) 
[]

>  <ref_mols>  (41) 
c0692a,c0892a

>  <alias>  (41) 
None

>  <original ID>  (41) 
JNAFQHXNLQQKAQ-UHFFFAOYSA-N

>  <exports>  (41) 
['/opt/xchem-fragalysis-2/maxwin/CHIKV_HIPPO/hippo_prod/CHIKV_prod11_recipes/Recipe_1G8PPKY_poses.sdf', '/opt/xchem-fragalysis-2/maxwin/CHIKV_HIPPO/hippo_prod/CHIKV_prod11b_recipes/Recipe_1GFD8FK_poses.sdf', '/opt/xchem-fragalysis-2/maxwin/CHIKV_HIPPO/hippo_prod/CHIKV_prod11c_recipes/Recipe_1GJXW46_poses.sdf']

>  <method>  (41) 
None

>  <submitter_email>  (41) 
None

>  <submitter_name>  (41) 
None

$$$$
CQPQOENVXXFLSV-UHFFFAOYSA-N
     RDKit          3D

 22 23  0  0  0  0  0  0  0  0999 V2000
   20.0918   11.4927   10.6426 C   0  0  0  0  0  0  0  0  0  0  0  0
   18.7085   11.7919   10.4656 O   0  0  0  0  0  0  0  0  0  0  0  0
   17.9088   10.6337   10.4658 C   0  0  0  0  0  0  0  0  0  0  0  0
   16.6982   10.2934    9.5066 C   0  0  0  0  0  0  0  0  0  0  0  0
   16.6407    9.3029    8.7769 O   0  0  0  0  0  0  0  0  0  0  0  0
   15.5120   11.0050    9.5579 N   0  0  0  0  0  0  0  0  0  0  0  0
   14.9159   10.9163   10.8092 C   0  0  0  0  0  0  0  0  0  0  0  0
   14.6904   12.0500   11.5643 C   0  0  0  0  0  0  0  0  0  0  0  0
   14.5561   11.8953   12.9338 C   0  0  0  0  0  0  0  0  0  0  0  0
   14.7084   10.6250   13.5112 C   0  0  0  0  0  0  0  0  0  0  0  0
   14.7963   10.5736   15.2195 Cl  0  0  0  0  0  0  0  0  0  0  0  0
   14.8605    9.4882   12.7108 C   0  0  0  0  0  0  0  0  0  0  0  0
   15.0510    8.0797   13.1061 C   0  0  0  0  0  0  0  0  0  0  0  0
   15.5780    7.2908   12.3249 O   0  0  0  0  0  0  0  0  0  0  0  0
   14.5473    7.7058   14.3171 N   0  0  0  0  0  0  0  0  0  0  0  0
   14.1943    6.3266   14.5376 C   0  0  0  0  0  0  0  0  0  0  0  0
   12.8023    6.1327   14.0205 C   0  0  0  0  0  0  0  0  0  0  0  0
   12.3950    5.4424   12.8962 C   0  0  0  0  0  0  0  0  0  0  0  0
   10.9800    5.4612   12.7338 C   0  0  0  0  0  0  0  0  0  0  0  0
   10.3554    6.1823   13.7253 C   0  0  0  0  0  0  0  0  0  0  0  0
   11.4697    6.8436   14.8381 S   0  0  0  0  0  0  0  0  0  0  0  0
   14.8693    9.6417   11.3447 C   0  0  0  0  0  0  0  0  0  0  0  0
  1  2  1  0
  2  3  1  0
  3  4  1  0
  4  5  2  0
  4  6  1  0
  6  7  1  0
  7  8  2  0
  8  9  1  0
  9 10  2  0
 10 11  1  0
 10 12  1  0
 12 13  1  0
 13 14  2  0
 13 15  1  0
 15 16  1  0
 16 17  1  0
 17 18  2  0
 18 19  1  0
 19 20  2  0
 20 21  1  0
 12 22  2  0
 22  7  1  0
 21 17  1  0
M  END
>  <HIPPO ID>  (42) 
15550

>  <ref_url>  (42) 
None

>  <ref_pdb>  (42) 
c0270a

>  <inchikey>  (42) 
CQPQOENVXXFLSV-UHFFFAOYSA-N

>  <original SMILES>  (42) 
COCC(=O)Nc1ccc(Cl)c(C(=O)NCc2cccs2)c1

>  <generation_date>  (42) 
None

>  <tags>  (42) 
[]

>  <ref_mols>  (42) 
c0692a,c0892a

>  <alias>  (42) 
None

>  <original ID>  (42) 
CQPQOENVXXFLSV-UHFFFAOYSA-N

>  <exports>  (42) 
['/opt/xchem-fragalysis-2/maxwin/CHIKV_HIPPO/hippo_prod/CHIKV_prod11_recipes/Recipe_1G8PPKY_poses.sdf', '/opt/xchem-fragalysis-2/maxwin/CHIKV_HIPPO/hippo_prod/CHIKV_prod11_recipes/Recipe_1GERJCJ_poses.sdf', '/opt/xchem-fragalysis-2/maxwin/CHIKV_HIPPO/hippo_prod/CHIKV_prod11c_recipes/Recipe_1GJWBFH_poses.sdf', '/opt/xchem-fragalysis-2/maxwin/CHIKV_HIPPO/hippo_prod/CHIKV_prod11c_recipes/Recipe_1GJXK8G_poses.sdf', '/opt/xchem-fragalysis-2/maxwin/CHIKV_HIPPO/hippo_prod/CHIKV_prod11c_recipes/Recipe_1GJXW46_poses.sdf']

>  <method>  (42) 
None

>  <submitter_email>  (42) 
None

>  <submitter_name>  (42) 
None

$$$$
GTUWRHPMLOKNGV-UHFFFAOYSA-N
     RDKit          3D

 23 25  0  0  0  0  0  0  0  0999 V2000
   16.7443   12.1241   11.3274 O   0  0  0  0  0  0  0  0  0  0  0  0
   15.5877   11.8016   11.5704 C   0  0  0  0  0  0  0  0  0  0  0  0
   14.7204   11.4555   10.5764 N   0  0  0  0  0  0  0  0  0  0  0  0
   14.8151   10.1066   10.1761 C   0  0  0  0  0  0  0  0  0  0  0  0
   13.9201    9.6305    9.2410 C   0  0  0  0  0  0  0  0  0  0  0  0
   13.7736    8.2771    9.0191 C   0  0  0  0  0  0  0  0  0  0  0  0
   14.3733    7.3876    9.8801 C   0  0  0  0  0  0  0  0  0  0  0  0
   15.2532    7.8802   10.8262 C   0  0  0  0  0  0  0  0  0  0  0  0
   15.5811    7.0137   11.9452 C   0  0  0  0  0  0  0  0  0  0  0  0
   16.2887    6.0388   11.7663 O   0  0  0  0  0  0  0  0  0  0  0  0
   14.9107    7.3519   13.0963 N   0  0  0  0  0  0  0  0  0  0  0  0
   14.5016    6.3223   14.0182 C   0  0  0  0  0  0  0  0  0  0  0  0
   13.0201    6.1524   13.8515 C   0  0  0  0  0  0  0  0  0  0  0  0
   11.9963    6.6344   14.6398 C   0  0  0  0  0  0  0  0  0  0  0  0
   10.7046    6.2828   14.1453 C   0  0  0  0  0  0  0  0  0  0  0  0
   10.7828    5.5412   12.9935 C   0  0  0  0  0  0  0  0  0  0  0  0
   12.3979    5.2954   12.5131 S   0  0  0  0  0  0  0  0  0  0  0  0
   15.6006    9.2101   10.8832 C   0  0  0  0  0  0  0  0  0  0  0  0
   15.1411   11.4907   12.9556 C   0  0  0  0  0  0  0  0  0  0  0  0
   15.6980   12.0642   14.0149 C   0  0  0  0  0  0  0  0  0  0  0  0
   15.2503   11.3511   15.2239 C   0  0  0  0  0  0  0  0  0  0  0  0
   14.7290   10.0748   14.5964 C   0  0  0  0  0  0  0  0  0  0  0  0
   14.3253   10.3893   13.2476 O   0  0  0  0  0  0  0  0  0  0  0  0
  1  2  2  0
  2  3  1  0
  3  4  1  0
  4  5  2  0
  5  6  1  0
  6  7  2  0
  7  8  1  0
  8  9  1  0
  9 10  2  0
  9 11  1  0
 11 12  1  0
 12 13  1  0
 13 14  2  0
 14 15  1  0
 15 16  2  0
 16 17  1  0
  8 18  2  0
  2 19  1  0
 19 20  2  0
 20 21  1  0
 21 22  1  0
 22 23  1  0
 18  4  1  0
 23 19  1  0
 17 13  1  0
M  END
>  <HIPPO ID>  (43) 
15561

>  <ref_url>  (43) 
None

>  <ref_pdb>  (43) 
c0270a

>  <inchikey>  (43) 
GTUWRHPMLOKNGV-UHFFFAOYSA-N

>  <original SMILES>  (43) 
O=C(Nc1cccc(C(=O)NCc2cccs2)c1)C1=CCCO1

>  <generation_date>  (43) 
None

>  <tags>  (43) 
[]

>  <ref_mols>  (43) 
c0692a,c0892a

>  <alias>  (43) 
None

>  <original ID>  (43) 
GTUWRHPMLOKNGV-UHFFFAOYSA-N

>  <exports>  (43) 
['/opt/xchem-fragalysis-2/maxwin/CHIKV_HIPPO/hippo_prod/CHIKV_prod11c_recipes/Recipe_1GJWBFH_poses.sdf', '/opt/xchem-fragalysis-2/maxwin/CHIKV_HIPPO/hippo_prod/CHIKV_prod11c_recipes/Recipe_1GJXK8G_poses.sdf', '/opt/xchem-fragalysis-2/maxwin/CHIKV_HIPPO/hippo_prod/CHIKV_prod11c_recipes/Recipe_1GJXW46_poses.sdf']

>  <method>  (43) 
None

>  <submitter_email>  (43) 
None

>  <submitter_name>  (43) 
None

$$$$
DRIGAIZENUBOKU-UHFFFAOYSA-N
     RDKit          3D

 23 24  0  0  0  0  0  0  0  0999 V2000
   15.6030   13.3458   11.5531 O   0  0  0  0  0  0  0  0  0  0  0  0
   15.5534   12.1249   11.4600 C   0  0  0  0  0  0  0  0  0  0  0  0
   16.7584   11.3158   11.9102 C   0  0  0  0  0  0  0  0  0  0  0  0
   16.7956    9.9366   11.7823 O   0  0  0  0  0  0  0  0  0  0  0  0
   17.0792    9.4584   10.4836 C   0  0  0  0  0  0  0  0  0  0  0  0
   16.6997    8.1623   10.4920 F   0  0  0  0  0  0  0  0  0  0  0  0
   16.3436   10.0837    9.5600 F   0  0  0  0  0  0  0  0  0  0  0  0
   14.4628   11.5944   10.8770 N   0  0  0  0  0  0  0  0  0  0  0  0
   14.2934   10.2437   10.6788 C   0  0  0  0  0  0  0  0  0  0  0  0
   13.9443    9.7719    9.4152 C   0  0  0  0  0  0  0  0  0  0  0  0
   13.7949    8.4186    9.1683 C   0  0  0  0  0  0  0  0  0  0  0  0
   14.0569    7.5201   10.1873 C   0  0  0  0  0  0  0  0  0  0  0  0
   14.4142    7.9985   11.4545 C   0  0  0  0  0  0  0  0  0  0  0  0
   14.8732    7.0450   12.4551 C   0  0  0  0  0  0  0  0  0  0  0  0
   15.3971    6.0040   12.0821 O   0  0  0  0  0  0  0  0  0  0  0  0
   14.5748    7.3501   13.7673 N   0  0  0  0  0  0  0  0  0  0  0  0
   14.1090    6.2475   14.5649 C   0  0  0  0  0  0  0  0  0  0  0  0
   12.6730    6.0446   14.1706 C   0  0  0  0  0  0  0  0  0  0  0  0
   12.1794    5.2800   13.1305 C   0  0  0  0  0  0  0  0  0  0  0  0
   10.7640    5.3622   13.0193 C   0  0  0  0  0  0  0  0  0  0  0  0
   10.2241    6.2043   13.9643 C   0  0  0  0  0  0  0  0  0  0  0  0
   11.4215    6.9049   14.9641 S   0  0  0  0  0  0  0  0  0  0  0  0
   14.4564    9.3575   11.7338 C   0  0  0  0  0  0  0  0  0  0  0  0
  1  2  2  0
  2  3  1  0
  3  4  1  0
  4  5  1  0
  5  6  1  0
  5  7  1  0
  2  8  1  0
  8  9  1  0
  9 10  2  0
 10 11  1  0
 11 12  2  0
 12 13  1  0
 13 14  1  0
 14 15  2  0
 14 16  1  0
 16 17  1  0
 17 18  1  0
 18 19  2  0
 19 20  1  0
 20 21  2  0
 21 22  1  0
 13 23  2  0
 23  9  1  0
 22 18  1  0
M  END
>  <HIPPO ID>  (44) 
15564

>  <ref_url>  (44) 
None

>  <ref_pdb>  (44) 
c0270a

>  <inchikey>  (44) 
DRIGAIZENUBOKU-UHFFFAOYSA-N

>  <original SMILES>  (44) 
O=C(COC(F)F)Nc1cccc(C(=O)NCc2cccs2)c1

>  <generation_date>  (44) 
None

>  <tags>  (44) 
[]

>  <ref_mols>  (44) 
c0692a,c0892a

>  <alias>  (44) 
None

>  <original ID>  (44) 
DRIGAIZENUBOKU-UHFFFAOYSA-N

>  <exports>  (44) 
['/opt/xchem-fragalysis-2/maxwin/CHIKV_HIPPO/hippo_prod/CHIKV_prod11_recipes/Recipe_1GERJCJ_poses.sdf', '/opt/xchem-fragalysis-2/maxwin/CHIKV_HIPPO/hippo_prod/CHIKV_prod11c_recipes/Recipe_1GJWBFH_poses.sdf', '/opt/xchem-fragalysis-2/maxwin/CHIKV_HIPPO/hippo_prod/CHIKV_prod11c_recipes/Recipe_1GJXK8G_poses.sdf', '/opt/xchem-fragalysis-2/maxwin/CHIKV_HIPPO/hippo_prod/CHIKV_prod11c_recipes/Recipe_1GJXW46_poses.sdf']

>  <method>  (44) 
None

>  <submitter_email>  (44) 
None

>  <submitter_name>  (44) 
None

$$$$
ZYJRWEACKGDWIL-UHFFFAOYSA-N
     RDKit          3D

 23 24  0  0  0  0  0  0  0  0999 V2000
   20.4601   11.4883   10.5286 C   0  0  0  0  0  0  0  0  0  0  0  0
   19.1801   11.8447   10.7490 C   0  0  0  0  0  0  0  0  0  0  0  0
   18.7654   13.0353   11.2724 O   0  0  0  0  0  0  0  0  0  0  0  0
   19.7736   13.8939   11.7613 C   0  0  0  0  0  0  0  0  0  0  0  0
   18.0724   10.8730   10.4415 C   0  0  0  0  0  0  0  0  0  0  0  0
   18.2167    9.6742   10.5511 O   0  0  0  0  0  0  0  0  0  0  0  0
   16.8341   11.3156   10.0425 N   0  0  0  0  0  0  0  0  0  0  0  0
   15.7908   11.0526   10.9346 C   0  0  0  0  0  0  0  0  0  0  0  0
   15.3892   12.0728   11.7837 C   0  0  0  0  0  0  0  0  0  0  0  0
   14.7767   11.7320   12.9685 C   0  0  0  0  0  0  0  0  0  0  0  0
   14.6540   10.3801   13.3000 C   0  0  0  0  0  0  0  0  0  0  0  0
   14.2738   10.0773   14.9421 Cl  0  0  0  0  0  0  0  0  0  0  0  0
   14.9390    9.3699   12.3638 C   0  0  0  0  0  0  0  0  0  0  0  0
   14.8552    7.9006   12.5496 C   0  0  0  0  0  0  0  0  0  0  0  0
   14.9539    7.1519   11.5805 O   0  0  0  0  0  0  0  0  0  0  0  0
   14.6691    7.4319   13.8208 N   0  0  0  0  0  0  0  0  0  0  0  0
   14.2399    6.0763   14.0407 C   0  0  0  0  0  0  0  0  0  0  0  0
   12.7700    6.0001   13.7685 C   0  0  0  0  0  0  0  0  0  0  0  0
   12.1371    5.3503   12.7277 C   0  0  0  0  0  0  0  0  0  0  0  0
   10.7210    5.4772   12.7901 C   0  0  0  0  0  0  0  0  0  0  0  0
   10.3181    6.2399   13.8623 C   0  0  0  0  0  0  0  0  0  0  0  0
   11.6429    6.8004   14.7862 S   0  0  0  0  0  0  0  0  0  0  0  0
   15.4273    9.7348   11.1235 C   0  0  0  0  0  0  0  0  0  0  0  0
  1  2  2  0
  2  3  1  0
  3  4  1  0
  2  5  1  0
  5  6  2  0
  5  7  1  0
  7  8  1  0
  8  9  2  0
  9 10  1  0
 10 11  2  0
 11 12  1  0
 11 13  1  0
 13 14  1  0
 14 15  2  0
 14 16  1  0
 16 17  1  0
 17 18  1  0
 18 19  2  0
 19 20  1  0
 20 21  2  0
 21 22  1  0
 13 23  2  0
 23  8  1  0
 22 18  1  0
M  END
>  <HIPPO ID>  (45) 
15588

>  <ref_url>  (45) 
None

>  <ref_pdb>  (45) 
c0270a

>  <inchikey>  (45) 
ZYJRWEACKGDWIL-UHFFFAOYSA-N

>  <original SMILES>  (45) 
C=C(OC)C(=O)Nc1ccc(Cl)c(C(=O)NCc2cccs2)c1

>  <generation_date>  (45) 
None

>  <tags>  (45) 
[]

>  <ref_mols>  (45) 
c0692a,c0892a

>  <alias>  (45) 
None

>  <original ID>  (45) 
ZYJRWEACKGDWIL-UHFFFAOYSA-N

>  <exports>  (45) 
['/opt/xchem-fragalysis-2/maxwin/CHIKV_HIPPO/hippo_prod/CHIKV_prod11_recipes/Recipe_1G8PPKY_poses.sdf', '/opt/xchem-fragalysis-2/maxwin/CHIKV_HIPPO/hippo_prod/CHIKV_prod11c_recipes/Recipe_1GJXW46_poses.sdf']

>  <method>  (45) 
None

>  <submitter_email>  (45) 
None

>  <submitter_name>  (45) 
None

$$$$
ICBADWZPPAWLRX-INIZCTEOSA-N
     RDKit          3D

 24 25  0  0  0  0  0  0  0  0999 V2000
   19.0041   14.0440   12.8650 C   0  0  0  0  0  0  0  0  0  0  0  0
   18.5058   12.8425   12.1485 C   0  0  0  0  0  0  0  0  0  0  0  0
   19.6419   12.1254   11.7663 O   0  0  0  0  0  0  0  0  0  0  0  0
   19.5383   11.5894   10.4805 C   0  0  1  0  0  0  0  0  0  0  0  0
   20.9167   10.9767   10.1384 C   0  0  0  0  0  0  0  0  0  0  0  0
   21.9555   10.8706   11.2354 C   0  0  0  0  0  0  0  0  0  0  0  0
   18.2260   10.7294   10.2871 C   0  0  0  0  0  0  0  0  0  0  0  0
   18.1904    9.5215   10.3652 O   0  0  0  0  0  0  0  0  0  0  0  0
   16.9940   11.3276   10.0769 N   0  0  0  0  0  0  0  0  0  0  0  0
   15.9208   10.9998   10.9398 C   0  0  0  0  0  0  0  0  0  0  0  0
   15.3142   12.0189   11.6761 C   0  0  0  0  0  0  0  0  0  0  0  0
   14.5331   11.7006   12.7751 C   0  0  0  0  0  0  0  0  0  0  0  0
   14.3969   10.3647   13.1377 C   0  0  0  0  0  0  0  0  0  0  0  0
   14.9171    9.3541   12.3135 C   0  0  0  0  0  0  0  0  0  0  0  0
   14.8043    7.9088   12.5815 C   0  0  0  0  0  0  0  0  0  0  0  0
   14.9129    7.0999   11.6661 O   0  0  0  0  0  0  0  0  0  0  0  0
   14.5968    7.5509   13.8886 N   0  0  0  0  0  0  0  0  0  0  0  0
   14.1948    6.2051   14.2014 C   0  0  0  0  0  0  0  0  0  0  0  0
   12.7386    6.0698   13.8857 C   0  0  0  0  0  0  0  0  0  0  0  0
   12.1631    5.3851   12.8336 C   0  0  0  0  0  0  0  0  0  0  0  0
   10.7425    5.4656   12.8468 C   0  0  0  0  0  0  0  0  0  0  0  0
   10.2797    6.2286   13.8944 C   0  0  0  0  0  0  0  0  0  0  0  0
   11.5538    6.8478   14.8521 S   0  0  0  0  0  0  0  0  0  0  0  0
   15.6023    9.6779   11.1615 C   0  0  0  0  0  0  0  0  0  0  0  0
  1  2  1  0
  2  3  1  0
  3  4  1  0
  4  5  1  1
  5  6  1  0
  4  7  1  0
  7  8  2  0
  7  9  1  0
  9 10  1  0
 10 11  2  0
 11 12  1  0
 12 13  2  0
 13 14  1  0
 14 15  1  0
 15 16  2  0
 15 17  1  0
 17 18  1  0
 18 19  1  0
 19 20  2  0
 20 21  1  0
 21 22  2  0
 22 23  1  0
 14 24  2  0
 24 10  1  0
 23 19  1  0
M  END
>  <HIPPO ID>  (46) 
15640

>  <ref_url>  (46) 
None

>  <ref_pdb>  (46) 
c0270a

>  <inchikey>  (46) 
ICBADWZPPAWLRX-INIZCTEOSA-N

>  <original SMILES>  (46) 
CCO[C@@H](CC)C(=O)Nc1cccc(C(=O)NCc2cccs2)c1

>  <generation_date>  (46) 
None

>  <tags>  (46) 
[]

>  <ref_mols>  (46) 
c0692a,c0892a

>  <alias>  (46) 
None

>  <original ID>  (46) 
ICBADWZPPAWLRX-INIZCTEOSA-N

>  <exports>  (46) 
['/opt/xchem-fragalysis-2/maxwin/CHIKV_HIPPO/hippo_prod/CHIKV_prod11_recipes/Recipe_1GERJCJ_poses.sdf', '/opt/xchem-fragalysis-2/maxwin/CHIKV_HIPPO/hippo_prod/CHIKV_prod11c_recipes/Recipe_1GJXK8G_poses.sdf', '/opt/xchem-fragalysis-2/maxwin/CHIKV_HIPPO/hippo_prod/CHIKV_prod11c_recipes/Recipe_1GJXW46_poses.sdf']

>  <method>  (46) 
None

>  <submitter_email>  (46) 
None

>  <submitter_name>  (46) 
None

$$$$
ZKXXDKWSOUYOAS-MRXNPFEDSA-N
     RDKit          3D

 24 25  0  0  0  0  0  0  0  0999 V2000
   20.0207   11.3241   10.4752 C   0  0  0  0  0  0  0  0  0  0  0  0
   18.6101   11.4542   10.6643 O   0  0  0  0  0  0  0  0  0  0  0  0
   18.1773   12.6863   11.2426 C   0  0  1  0  0  0  0  0  0  0  0  0
   16.6254   12.9008   11.3023 C   0  0  0  0  0  0  0  0  0  0  0  0
   16.1532   13.8948   11.8553 O   0  0  0  0  0  0  0  0  0  0  0  0
   15.8760   11.8408   10.7747 N   0  0  0  0  0  0  0  0  0  0  0  0
   14.9061   11.2477   11.5871 C   0  0  0  0  0  0  0  0  0  0  0  0
   14.2703   11.9541   12.6031 C   0  0  0  0  0  0  0  0  0  0  0  0
   14.0691   11.3138   13.8143 C   0  0  0  0  0  0  0  0  0  0  0  0
   14.3472    9.9537   13.9412 C   0  0  0  0  0  0  0  0  0  0  0  0
   14.7803    9.2210   12.8227 C   0  0  0  0  0  0  0  0  0  0  0  0
   15.0127    7.7607   12.8034 C   0  0  0  0  0  0  0  0  0  0  0  0
   15.3497    7.1901   11.7705 O   0  0  0  0  0  0  0  0  0  0  0  0
   14.7824    7.0993   13.9839 N   0  0  0  0  0  0  0  0  0  0  0  0
   14.2887    5.7492   13.9237 C   0  0  0  0  0  0  0  0  0  0  0  0
   12.8139    5.8139   13.6494 C   0  0  0  0  0  0  0  0  0  0  0  0
   12.1301    5.2726   12.5800 C   0  0  0  0  0  0  0  0  0  0  0  0
   10.7292    5.5155   12.6509 C   0  0  0  0  0  0  0  0  0  0  0  0
   10.3871    6.2578   13.7575 C   0  0  0  0  0  0  0  0  0  0  0  0
   11.7511    6.6618   14.7038 S   0  0  0  0  0  0  0  0  0  0  0  0
   15.0179    9.8711   11.6251 C   0  0  0  0  0  0  0  0  0  0  0  0
   18.4687   12.7839   12.7349 C   0  0  0  0  0  0  0  0  0  0  0  0
   17.4751   11.6830   13.3109 C   0  0  0  0  0  0  0  0  0  0  0  0
   19.9820   13.0392   12.9265 C   0  0  0  0  0  0  0  0  0  0  0  0
  1  2  1  0
  3  2  1  1
  3  4  1  0
  4  5  2  0
  4  6  1  0
  6  7  1  0
  7  8  2  0
  8  9  1  0
  9 10  2  0
 10 11  1  0
 11 12  1  0
 12 13  2  0
 12 14  1  0
 14 15  1  0
 15 16  1  0
 16 17  2  0
 17 18  1  0
 18 19  2  0
 19 20  1  0
 11 21  2  0
  3 22  1  0
 22 23  1  0
 22 24  1  0
 21  7  1  0
 20 16  1  0
M  END
>  <HIPPO ID>  (47) 
15642

>  <ref_url>  (47) 
None

>  <ref_pdb>  (47) 
c0270a

>  <inchikey>  (47) 
ZKXXDKWSOUYOAS-MRXNPFEDSA-N

>  <original SMILES>  (47) 
CO[C@@H](C(=O)Nc1cccc(C(=O)NCc2cccs2)c1)C(C)C

>  <generation_date>  (47) 
None

>  <tags>  (47) 
[]

>  <ref_mols>  (47) 
c0692a,c0892a

>  <alias>  (47) 
None

>  <original ID>  (47) 
ZKXXDKWSOUYOAS-MRXNPFEDSA-N

>  <exports>  (47) 
['/opt/xchem-fragalysis-2/maxwin/CHIKV_HIPPO/hippo_prod/CHIKV_prod11c_recipes/Recipe_1GJWBFH_poses.sdf', '/opt/xchem-fragalysis-2/maxwin/CHIKV_HIPPO/hippo_prod/CHIKV_prod11c_recipes/Recipe_1GJXK8G_poses.sdf', '/opt/xchem-fragalysis-2/maxwin/CHIKV_HIPPO/hippo_prod/CHIKV_prod11c_recipes/Recipe_1GJXW46_poses.sdf']

>  <method>  (47) 
None

>  <submitter_email>  (47) 
None

>  <submitter_name>  (47) 
None

$$$$
ZKXXDKWSOUYOAS-MRXNPFEDSA-N
     RDKit          3D

 24 25  0  0  0  0  0  0  0  0999 V2000
   20.8905   11.1471   10.3493 C   0  0  0  0  0  0  0  0  0  0  0  0
   19.5830   11.3776   10.8723 O   0  0  0  0  0  0  0  0  0  0  0  0
   19.2953   12.7410   11.2226 C   0  0  1  0  0  0  0  0  0  0  0  0
   17.7555   12.8827   11.4214 C   0  0  0  0  0  0  0  0  0  0  0  0
   17.2351   13.8984   11.8770 O   0  0  0  0  0  0  0  0  0  0  0  0
   17.0258   11.7756   11.0576 N   0  0  0  0  0  0  0  0  0  0  0  0
   15.9066   11.3503   11.7778 C   0  0  0  0  0  0  0  0  0  0  0  0
   15.2042   12.1398   12.6930 C   0  0  0  0  0  0  0  0  0  0  0  0
   14.4117   11.5376   13.6592 C   0  0  0  0  0  0  0  0  0  0  0  0
   14.3190   10.1514   13.6937 C   0  0  0  0  0  0  0  0  0  0  0  0
   14.9371    9.3835   12.6958 C   0  0  0  0  0  0  0  0  0  0  0  0
   14.8861    7.9103   12.6465 C   0  0  0  0  0  0  0  0  0  0  0  0
   15.0410    7.3114   11.5889 O   0  0  0  0  0  0  0  0  0  0  0  0
   14.6982    7.2940   13.8565 N   0  0  0  0  0  0  0  0  0  0  0  0
   14.2419    5.9320   13.9077 C   0  0  0  0  0  0  0  0  0  0  0  0
   12.7628    5.9242   13.6768 C   0  0  0  0  0  0  0  0  0  0  0  0
   12.0776    5.3279   12.6376 C   0  0  0  0  0  0  0  0  0  0  0  0
   10.6698    5.5079   12.7416 C   0  0  0  0  0  0  0  0  0  0  0  0
   10.3239    6.2553   13.8439 C   0  0  0  0  0  0  0  0  0  0  0  0
   11.6925    6.7369   14.7476 S   0  0  0  0  0  0  0  0  0  0  0  0
   15.6810    9.9915   11.7053 C   0  0  0  0  0  0  0  0  0  0  0  0
   19.9382   13.1856   12.5499 C   0  0  0  0  0  0  0  0  0  0  0  0
   19.7914   14.6820   12.8279 C   0  0  0  0  0  0  0  0  0  0  0  0
   21.3973   12.7951   12.7602 C   0  0  0  0  0  0  0  0  0  0  0  0
  1  2  1  0
  3  2  1  1
  3  4  1  0
  4  5  2  0
  4  6  1  0
  6  7  1  0
  7  8  2  0
  8  9  1  0
  9 10  2  0
 10 11  1  0
 11 12  1  0
 12 13  2  0
 12 14  1  0
 14 15  1  0
 15 16  1  0
 16 17  2  0
 17 18  1  0
 18 19  2  0
 19 20  1  0
 11 21  2  0
  3 22  1  0
 22 23  1  0
 22 24  1  0
 21  7  1  0
 20 16  1  0
M  END
>  <HIPPO ID>  (48) 
15643

>  <ref_url>  (48) 
None

>  <ref_pdb>  (48) 
c0270a

>  <inchikey>  (48) 
ZKXXDKWSOUYOAS-MRXNPFEDSA-N

>  <original SMILES>  (48) 
CO[C@@H](C(=O)Nc1cccc(C(=O)NCc2cccs2)c1)C(C)C

>  <generation_date>  (48) 
None

>  <tags>  (48) 
[]

>  <ref_mols>  (48) 
c0692a,c0892a

>  <alias>  (48) 
None

>  <original ID>  (48) 
ZKXXDKWSOUYOAS-MRXNPFEDSA-N

>  <exports>  (48) 
['/opt/xchem-fragalysis-2/maxwin/CHIKV_HIPPO/hippo_prod/CHIKV_prod11c_recipes/Recipe_1GJWBFH_poses.sdf', '/opt/xchem-fragalysis-2/maxwin/CHIKV_HIPPO/hippo_prod/CHIKV_prod11c_recipes/Recipe_1GJXK8G_poses.sdf', '/opt/xchem-fragalysis-2/maxwin/CHIKV_HIPPO/hippo_prod/CHIKV_prod11c_recipes/Recipe_1GJXW46_poses.sdf']

>  <method>  (48) 
None

>  <submitter_email>  (48) 
None

>  <submitter_name>  (48) 
None

$$$$
RVLIBSAFXNZNQW-MRXNPFEDSA-N
     RDKit          3D

 25 26  0  0  0  0  0  0  0  0999 V2000
   15.6133    5.9190   11.7601 C   0  0  0  0  0  0  0  0  0  0  0  0
   15.9599    7.0001   10.9168 O   0  0  0  0  0  0  0  0  0  0  0  0
   14.9623    8.0343   10.8386 C   0  0  1  0  0  0  0  0  0  0  0  0
   15.2857    9.0334   11.9184 C   0  0  0  0  0  0  0  0  0  0  0  0
   15.8798    8.6439   12.9315 O   0  0  0  0  0  0  0  0  0  0  0  0
   14.8000   10.3374   11.7743 N   0  0  0  0  0  0  0  0  0  0  0  0
   14.7504   11.0945   12.9496 C   0  0  0  0  0  0  0  0  0  0  0  0
   15.3398   12.3350   13.0775 C   0  0  0  0  0  0  0  0  0  0  0  0
   15.6685   12.7458   14.3718 C   0  0  0  0  0  0  0  0  0  0  0  0
   15.4879   11.8798   15.4722 C   0  0  0  0  0  0  0  0  0  0  0  0
   16.0475   12.3889   17.0058 Cl  0  0  0  0  0  0  0  0  0  0  0  0
   14.8786   10.6502   15.2831 C   0  0  0  0  0  0  0  0  0  0  0  0
   14.7973    9.4888   16.2066 C   0  0  0  0  0  0  0  0  0  0  0  0
   14.4037    9.6094   17.3543 O   0  0  0  0  0  0  0  0  0  0  0  0
   15.0702    8.2632   15.6127 N   0  0  0  0  0  0  0  0  0  0  0  0
   14.5254    7.0210   16.1132 C   0  0  0  0  0  0  0  0  0  0  0  0
   13.3891    6.5825   15.2203 C   0  0  0  0  0  0  0  0  0  0  0  0
   13.3607    5.5497   14.2992 C   0  0  0  0  0  0  0  0  0  0  0  0
   12.1156    5.4544   13.6074 C   0  0  0  0  0  0  0  0  0  0  0  0
   11.2049    6.3766   14.0678 C   0  0  0  0  0  0  0  0  0  0  0  0
   11.8557    7.3490   15.3109 S   0  0  0  0  0  0  0  0  0  0  0  0
   14.3136   10.3965   14.0585 C   0  0  0  0  0  0  0  0  0  0  0  0
   15.0030    8.5856    9.4324 C   0  0  0  0  0  0  0  0  0  0  0  0
   16.1474    9.5346    9.1541 C   0  0  0  0  0  0  0  0  0  0  0  0
   13.6795    9.1299    8.9549 C   0  0  0  0  0  0  0  0  0  0  0  0
  1  2  1  0
  3  2  1  6
  3  4  1  0
  4  5  2  0
  4  6  1  0
  6  7  1  0
  7  8  2  0
  8  9  1  0
  9 10  2  0
 10 11  1  0
 10 12  1  0
 12 13  1  0
 13 14  2  0
 13 15  1  0
 15 16  1  0
 16 17  1  0
 17 18  2  0
 18 19  1  0
 19 20  2  0
 20 21  1  0
 12 22  2  0
  3 23  1  0
 23 24  1  0
 23 25  1  0
 22  7  1  0
 21 17  1  0
M  END
>  <HIPPO ID>  (49) 
15966

>  <ref_url>  (49) 
None

>  <ref_pdb>  (49) 
c0270a

>  <inchikey>  (49) 
RVLIBSAFXNZNQW-MRXNPFEDSA-N

>  <original SMILES>  (49) 
CO[C@@H](C(=O)Nc1ccc(Cl)c(C(=O)NCc2cccs2)c1)C(C)C

>  <generation_date>  (49) 
None

>  <tags>  (49) 
[]

>  <ref_mols>  (49) 
c0692a,c0892a

>  <alias>  (49) 
None

>  <original ID>  (49) 
RVLIBSAFXNZNQW-MRXNPFEDSA-N

>  <exports>  (49) 
['/opt/xchem-fragalysis-2/maxwin/CHIKV_HIPPO/hippo_prod/CHIKV_prod11c_recipes/Recipe_1GJWBFH_poses.sdf', '/opt/xchem-fragalysis-2/maxwin/CHIKV_HIPPO/hippo_prod/CHIKV_prod11c_recipes/Recipe_1GJXK8G_poses.sdf', '/opt/xchem-fragalysis-2/maxwin/CHIKV_HIPPO/hippo_prod/CHIKV_prod11c_recipes/Recipe_1GJXW46_poses.sdf']

>  <method>  (49) 
None

>  <submitter_email>  (49) 
None

>  <submitter_name>  (49) 
None

$$$$
RVLIBSAFXNZNQW-MRXNPFEDSA-N
     RDKit          3D

 25 26  0  0  0  0  0  0  0  0999 V2000
   13.1248    8.8838    8.5646 C   0  0  0  0  0  0  0  0  0  0  0  0
   14.4795    8.5363    8.5770 O   0  0  0  0  0  0  0  0  0  0  0  0
   15.0016    8.3697    9.8923 C   0  0  1  0  0  0  0  0  0  0  0  0
   14.9670    9.8147   10.5481 C   0  0  0  0  0  0  0  0  0  0  0  0
   14.7432   10.8312    9.8672 O   0  0  0  0  0  0  0  0  0  0  0  0
   15.1522   10.1052   11.8590 N   0  0  0  0  0  0  0  0  0  0  0  0
   15.4192    9.2733   12.9258 C   0  0  0  0  0  0  0  0  0  0  0  0
   16.1546    8.1095   12.7673 C   0  0  0  0  0  0  0  0  0  0  0  0
   16.2321    7.1431   13.7589 C   0  0  0  0  0  0  0  0  0  0  0  0
   15.4981    7.3252   14.9054 C   0  0  0  0  0  0  0  0  0  0  0  0
   15.3954    6.0115   15.9993 Cl  0  0  0  0  0  0  0  0  0  0  0  0
   14.7557    8.4975   15.0547 C   0  0  0  0  0  0  0  0  0  0  0  0
   13.5847    8.4155   15.9119 C   0  0  0  0  0  0  0  0  0  0  0  0
   13.6485    8.6996   17.0922 O   0  0  0  0  0  0  0  0  0  0  0  0
   12.4910    7.9114   15.2418 N   0  0  0  0  0  0  0  0  0  0  0  0
   11.4789    7.2056   15.9871 C   0  0  0  0  0  0  0  0  0  0  0  0
   10.7144    6.3350   15.0440 C   0  0  0  0  0  0  0  0  0  0  0  0
   11.1868    5.4512   14.0895 C   0  0  0  0  0  0  0  0  0  0  0  0
   10.1402    4.7504   13.4317 C   0  0  0  0  0  0  0  0  0  0  0  0
    8.9054    5.1040   13.9191 C   0  0  0  0  0  0  0  0  0  0  0  0
    9.0076    6.3001   15.1323 S   0  0  0  0  0  0  0  0  0  0  0  0
   14.7814    9.5318   14.1228 C   0  0  0  0  0  0  0  0  0  0  0  0
   14.5548    6.9563   10.5106 C   0  0  0  0  0  0  0  0  0  0  0  0
   13.5529    6.8972   11.6441 C   0  0  0  0  0  0  0  0  0  0  0  0
   14.0508    5.8330    9.5891 C   0  0  0  0  0  0  0  0  0  0  0  0
  1  2  1  0
  3  2  1  6
  3  4  1  0
  4  5  2  0
  4  6  1  0
  6  7  1  0
  7  8  2  0
  8  9  1  0
  9 10  2  0
 10 11  1  0
 10 12  1  0
 12 13  1  0
 13 14  2  0
 13 15  1  0
 15 16  1  0
 16 17  1  0
 17 18  2  0
 18 19  1  0
 19 20  2  0
 20 21  1  0
 12 22  2  0
  3 23  1  0
 23 24  1  0
 23 25  1  0
 22  7  1  0
 21 17  1  0
M  END
>  <HIPPO ID>  (50) 
15967

>  <ref_url>  (50) 
None

>  <ref_pdb>  (50) 
c0270a

>  <inchikey>  (50) 
RVLIBSAFXNZNQW-MRXNPFEDSA-N

>  <original SMILES>  (50) 
CO[C@@H](C(=O)Nc1ccc(Cl)c(C(=O)NCc2cccs2)c1)C(C)C

>  <generation_date>  (50) 
None

>  <tags>  (50) 
[]

>  <ref_mols>  (50) 
c0692a,c0892a

>  <alias>  (50) 
None

>  <original ID>  (50) 
RVLIBSAFXNZNQW-MRXNPFEDSA-N

>  <exports>  (50) 
['/opt/xchem-fragalysis-2/maxwin/CHIKV_HIPPO/hippo_prod/CHIKV_prod11c_recipes/Recipe_1GJWBFH_poses.sdf', '/opt/xchem-fragalysis-2/maxwin/CHIKV_HIPPO/hippo_prod/CHIKV_prod11c_recipes/Recipe_1GJXK8G_poses.sdf', '/opt/xchem-fragalysis-2/maxwin/CHIKV_HIPPO/hippo_prod/CHIKV_prod11c_recipes/Recipe_1GJXW46_poses.sdf']

>  <method>  (50) 
None

>  <submitter_email>  (50) 
None

>  <submitter_name>  (50) 
None

$$$$
FSUYETMOLRPUPX-INIZCTEOSA-N
     RDKit          3D

 25 26  0  0  0  0  0  0  0  0999 V2000
   22.8117   11.4833    9.7471 C   0  0  0  0  0  0  0  0  0  0  0  0
   21.5110   10.8327   10.0749 C   0  0  0  0  0  0  0  0  0  0  0  0
   20.5984   11.9093   10.1407 O   0  0  0  0  0  0  0  0  0  0  0  0
   19.6579   11.7060   11.1302 C   0  0  1  0  0  0  0  0  0  0  0  0
   19.8003   12.9053   12.0539 C   0  0  0  0  0  0  0  0  0  0  0  0
   21.2026   12.9684   12.6669 C   0  0  0  0  0  0  0  0  0  0  0  0
   18.2905   11.2525   10.5898 C   0  0  0  0  0  0  0  0  0  0  0  0
   18.1994   10.2264    9.9333 O   0  0  0  0  0  0  0  0  0  0  0  0
   17.2059   11.9770   10.9885 N   0  0  0  0  0  0  0  0  0  0  0  0
   15.9540   11.4476   11.3130 C   0  0  0  0  0  0  0  0  0  0  0  0
   15.1357   12.3084   12.0326 C   0  0  0  0  0  0  0  0  0  0  0  0
   14.4002   11.7731   13.0635 C   0  0  0  0  0  0  0  0  0  0  0  0
   14.4826   10.4006   13.3026 C   0  0  0  0  0  0  0  0  0  0  0  0
   14.0715    9.9170   14.8927 Cl  0  0  0  0  0  0  0  0  0  0  0  0
   15.0279    9.5268   12.3506 C   0  0  0  0  0  0  0  0  0  0  0  0
   15.0218    8.0382   12.4003 C   0  0  0  0  0  0  0  0  0  0  0  0
   15.2407    7.3819   11.3875 O   0  0  0  0  0  0  0  0  0  0  0  0
   14.7798    7.4508   13.6142 N   0  0  0  0  0  0  0  0  0  0  0  0
   14.3836    6.0696   13.7150 C   0  0  0  0  0  0  0  0  0  0  0  0
   12.8976    5.9890   13.5467 C   0  0  0  0  0  0  0  0  0  0  0  0
   12.1956    5.3660   12.5346 C   0  0  0  0  0  0  0  0  0  0  0  0
   10.7860    5.4749   12.7032 C   0  0  0  0  0  0  0  0  0  0  0  0
   10.4532    6.1922   13.8291 C   0  0  0  0  0  0  0  0  0  0  0  0
   11.8365    6.7233   14.6811 S   0  0  0  0  0  0  0  0  0  0  0  0
   15.7229   10.0807   11.2896 C   0  0  0  0  0  0  0  0  0  0  0  0
  1  2  1  0
  2  3  1  0
  3  4  1  0
  4  5  1  6
  5  6  1  0
  4  7  1  0
  7  8  2  0
  7  9  1  0
  9 10  1  0
 10 11  2  0
 11 12  1  0
 12 13  2  0
 13 14  1  0
 13 15  1  0
 15 16  1  0
 16 17  2  0
 16 18  1  0
 18 19  1  0
 19 20  1  0
 20 21  2  0
 21 22  1  0
 22 23  2  0
 23 24  1  0
 15 25  2  0
 25 10  1  0
 24 20  1  0
M  END
>  <HIPPO ID>  (51) 
16026

>  <ref_url>  (51) 
None

>  <ref_pdb>  (51) 
c0270a

>  <inchikey>  (51) 
FSUYETMOLRPUPX-INIZCTEOSA-N

>  <original SMILES>  (51) 
CCO[C@@H](CC)C(=O)Nc1ccc(Cl)c(C(=O)NCc2cccs2)c1

>  <generation_date>  (51) 
None

>  <tags>  (51) 
[]

>  <ref_mols>  (51) 
c0692a,c0892a

>  <alias>  (51) 
None

>  <original ID>  (51) 
FSUYETMOLRPUPX-INIZCTEOSA-N

>  <exports>  (51) 
['/opt/xchem-fragalysis-2/maxwin/CHIKV_HIPPO/hippo_prod/CHIKV_prod11_recipes/Recipe_1GERJCJ_poses.sdf', '/opt/xchem-fragalysis-2/maxwin/CHIKV_HIPPO/hippo_prod/CHIKV_prod11c_recipes/Recipe_1GJXK8G_poses.sdf', '/opt/xchem-fragalysis-2/maxwin/CHIKV_HIPPO/hippo_prod/CHIKV_prod11c_recipes/Recipe_1GJXW46_poses.sdf']

>  <method>  (51) 
None

>  <submitter_email>  (51) 
None

>  <submitter_name>  (51) 
None

$$$$
ZHAQWAGCDVSHQF-SFHVURJKSA-N
     RDKit          3D

 26 27  0  0  0  0  0  0  0  0999 V2000
   13.4494    8.8097    8.4075 C   0  0  0  0  0  0  0  0  0  0  0  0
   13.9114    8.0006    9.5739 C   0  0  0  0  0  0  0  0  0  0  0  0
   15.0802    8.6285   10.3157 C   0  0  0  0  0  0  0  0  0  0  0  0
   15.1313    8.1269   11.7370 C   0  0  0  0  0  0  0  0  0  0  0  0
   15.1961    6.6227   11.8376 C   0  0  0  0  0  0  0  0  0  0  0  0
   15.2801   10.1520   10.1296 C   0  0  2  0  0  0  0  0  0  0  0  0
   16.4451   10.2568    9.3407 O   0  0  0  0  0  0  0  0  0  0  0  0
   17.6908   10.2813   10.0338 C   0  0  0  0  0  0  0  0  0  0  0  0
   15.4415   11.0432   11.3388 C   0  0  0  0  0  0  0  0  0  0  0  0
   16.3884   10.8822   12.1123 O   0  0  0  0  0  0  0  0  0  0  0  0
   14.4624   12.0266   11.5711 N   0  0  0  0  0  0  0  0  0  0  0  0
   14.2862   12.1697   12.9811 C   0  0  0  0  0  0  0  0  0  0  0  0
   15.0210   13.1117   13.6775 C   0  0  0  0  0  0  0  0  0  0  0  0
   15.6127   12.7294   14.8893 C   0  0  0  0  0  0  0  0  0  0  0  0
   15.5711   11.3920   15.3217 C   0  0  0  0  0  0  0  0  0  0  0  0
   14.7835   10.4901   14.6335 C   0  0  0  0  0  0  0  0  0  0  0  0
   14.9389    9.0133   14.7049 C   0  0  0  0  0  0  0  0  0  0  0  0
   16.0049    8.4561   14.4999 O   0  0  0  0  0  0  0  0  0  0  0  0
   13.7768    8.3305   14.9258 N   0  0  0  0  0  0  0  0  0  0  0  0
   13.7332    6.8966   15.0877 C   0  0  0  0  0  0  0  0  0  0  0  0
   12.4968    6.3920   14.4153 C   0  0  0  0  0  0  0  0  0  0  0  0
   12.3742    5.4219   13.4406 C   0  0  0  0  0  0  0  0  0  0  0  0
   11.0224    5.2051   13.0535 C   0  0  0  0  0  0  0  0  0  0  0  0
   10.1508    5.9928   13.7668 C   0  0  0  0  0  0  0  0  0  0  0  0
   10.9586    7.0026   14.8778 S   0  0  0  0  0  0  0  0  0  0  0  0
   14.0064   10.9524   13.5911 C   0  0  0  0  0  0  0  0  0  0  0  0
  1  2  1  0
  2  3  1  0
  3  4  1  0
  4  5  1  0
  3  6  1  0
  6  7  1  6
  7  8  1  0
  6  9  1  0
  9 10  2  0
  9 11  1  0
 11 12  1  0
 12 13  2  0
 13 14  1  0
 14 15  2  0
 15 16  1  0
 16 17  1  0
 17 18  2  0
 17 19  1  0
 19 20  1  0
 20 21  1  0
 21 22  2  0
 22 23  1  0
 23 24  2  0
 24 25  1  0
 16 26  2  0
 26 12  1  0
 25 21  1  0
M  END
>  <HIPPO ID>  (52) 
16035

>  <ref_url>  (52) 
None

>  <ref_pdb>  (52) 
c0270a

>  <inchikey>  (52) 
ZHAQWAGCDVSHQF-SFHVURJKSA-N

>  <original SMILES>  (52) 
CCC(CC)[C@H](OC)C(=O)Nc1cccc(C(=O)NCc2cccs2)c1

>  <generation_date>  (52) 
None

>  <tags>  (52) 
[]

>  <ref_mols>  (52) 
c0692a,c0892a

>  <alias>  (52) 
None

>  <original ID>  (52) 
ZHAQWAGCDVSHQF-SFHVURJKSA-N

>  <exports>  (52) 
['/opt/xchem-fragalysis-2/maxwin/CHIKV_HIPPO/hippo_prod/CHIKV_prod11c_recipes/Recipe_1GJWBFH_poses.sdf', '/opt/xchem-fragalysis-2/maxwin/CHIKV_HIPPO/hippo_prod/CHIKV_prod11c_recipes/Recipe_1GJXK8G_poses.sdf', '/opt/xchem-fragalysis-2/maxwin/CHIKV_HIPPO/hippo_prod/CHIKV_prod11c_recipes/Recipe_1GJXW46_poses.sdf']

>  <method>  (52) 
None

>  <submitter_email>  (52) 
None

>  <submitter_name>  (52) 
None

$$$$
ZHAQWAGCDVSHQF-GOSISDBHSA-N
     RDKit          3D

 26 27  0  0  0  0  0  0  0  0999 V2000
   13.6646    8.9741    8.5114 C   0  0  0  0  0  0  0  0  0  0  0  0
   14.6411    8.2969    9.4135 C   0  0  0  0  0  0  0  0  0  0  0  0
   14.6879    8.9098   10.7961 C   0  0  0  0  0  0  0  0  0  0  0  0
   15.7270    8.1645   11.6184 C   0  0  0  0  0  0  0  0  0  0  0  0
   15.4854    6.6837   11.7570 C   0  0  0  0  0  0  0  0  0  0  0  0
   14.8009   10.4752   10.7721 C   0  0  1  0  0  0  0  0  0  0  0  0
   13.9988   11.0433   11.8147 O   0  0  0  0  0  0  0  0  0  0  0  0
   13.5176   12.3537   11.4922 C   0  0  0  0  0  0  0  0  0  0  0  0
   16.2775   10.9259   10.7732 C   0  0  0  0  0  0  0  0  0  0  0  0
   17.1613   10.3259   10.1764 O   0  0  0  0  0  0  0  0  0  0  0  0
   16.6088   12.0721   11.4799 N   0  0  0  0  0  0  0  0  0  0  0  0
   16.2685   12.1112   12.8474 C   0  0  0  0  0  0  0  0  0  0  0  0
   15.8382   13.2788   13.4552 C   0  0  0  0  0  0  0  0  0  0  0  0
   15.2375   13.1836   14.7116 C   0  0  0  0  0  0  0  0  0  0  0  0
   15.0267   11.9311   15.3062 C   0  0  0  0  0  0  0  0  0  0  0  0
   15.4424   10.7780   14.6597 C   0  0  0  0  0  0  0  0  0  0  0  0
   15.1952    9.4239   15.1735 C   0  0  0  0  0  0  0  0  0  0  0  0
   15.8633    9.0278   16.1149 O   0  0  0  0  0  0  0  0  0  0  0  0
   14.2336    8.6667   14.5365 N   0  0  0  0  0  0  0  0  0  0  0  0
   14.0774    7.2625   14.8833 C   0  0  0  0  0  0  0  0  0  0  0  0
   12.7927    6.6910   14.3564 C   0  0  0  0  0  0  0  0  0  0  0  0
   12.6009    5.6016   13.5227 C   0  0  0  0  0  0  0  0  0  0  0  0
   11.2276    5.3576   13.2305 C   0  0  0  0  0  0  0  0  0  0  0  0
   10.4039    6.2245   13.9087 C   0  0  0  0  0  0  0  0  0  0  0  0
   11.2844    7.3119   14.8884 S   0  0  0  0  0  0  0  0  0  0  0  0
   16.1968   10.9028   13.5223 C   0  0  0  0  0  0  0  0  0  0  0  0
  1  2  1  0
  2  3  1  0
  3  4  1  0
  4  5  1  0
  3  6  1  0
  6  7  1  1
  7  8  1  0
  6  9  1  0
  9 10  2  0
  9 11  1  0
 11 12  1  0
 12 13  2  0
 13 14  1  0
 14 15  2  0
 15 16  1  0
 16 17  1  0
 17 18  2  0
 17 19  1  0
 19 20  1  0
 20 21  1  0
 21 22  2  0
 22 23  1  0
 23 24  2  0
 24 25  1  0
 16 26  2  0
 26 12  1  0
 25 21  1  0
M  END
>  <HIPPO ID>  (53) 
16036

>  <ref_url>  (53) 
None

>  <ref_pdb>  (53) 
c0270a

>  <inchikey>  (53) 
ZHAQWAGCDVSHQF-GOSISDBHSA-N

>  <original SMILES>  (53) 
CCC(CC)[C@@H](OC)C(=O)Nc1cccc(C(=O)NCc2cccs2)c1

>  <generation_date>  (53) 
None

>  <tags>  (53) 
[]

>  <ref_mols>  (53) 
c0692a,c0892a

>  <alias>  (53) 
None

>  <original ID>  (53) 
ZHAQWAGCDVSHQF-GOSISDBHSA-N

>  <exports>  (53) 
['/opt/xchem-fragalysis-2/maxwin/CHIKV_HIPPO/hippo_prod/CHIKV_prod11c_recipes/Recipe_1GJWBFH_poses.sdf', '/opt/xchem-fragalysis-2/maxwin/CHIKV_HIPPO/hippo_prod/CHIKV_prod11c_recipes/Recipe_1GJXK8G_poses.sdf', '/opt/xchem-fragalysis-2/maxwin/CHIKV_HIPPO/hippo_prod/CHIKV_prod11c_recipes/Recipe_1GJXW46_poses.sdf']

>  <method>  (53) 
None

>  <submitter_email>  (53) 
None

>  <submitter_name>  (53) 
None

$$$$
KSVKSMSOIXOMEB-LJQANCHMSA-N
     RDKit          3D

 27 29  0  0  0  0  0  0  0  0999 V2000
   13.6548   12.3592   10.8880 C   0  0  0  0  0  0  0  0  0  0  0  0
   14.2072   11.8126    9.7219 O   0  0  0  0  0  0  0  0  0  0  0  0
   15.4100   11.0793    9.7849 C   0  0  2  0  0  0  0  0  0  0  0  0
   15.1982    9.7053    9.2219 C   0  0  0  0  0  0  0  0  0  0  0  0
   14.5601    8.7373   10.1778 C   0  0  0  0  0  0  0  0  0  0  0  0
   15.4842    7.6611   10.7000 C   0  0  0  0  0  0  0  0  0  0  0  0
   14.6993    6.3606   10.7270 C   0  0  0  0  0  0  0  0  0  0  0  0
   13.3509    6.6655   10.1246 C   0  0  0  0  0  0  0  0  0  0  0  0
   13.5140    7.9794    9.4078 C   0  0  0  0  0  0  0  0  0  0  0  0
   16.4960   11.1252   10.8412 C   0  0  0  0  0  0  0  0  0  0  0  0
   17.4242   10.3238   10.8690 O   0  0  0  0  0  0  0  0  0  0  0  0
   16.3377   12.0871   11.8172 N   0  0  0  0  0  0  0  0  0  0  0  0
   15.8461   11.6445   13.0559 C   0  0  0  0  0  0  0  0  0  0  0  0
   15.4025   12.5125   14.0371 C   0  0  0  0  0  0  0  0  0  0  0  0
   14.8533   11.9710   15.2040 C   0  0  0  0  0  0  0  0  0  0  0  0
   14.6621   10.5847   15.3358 C   0  0  0  0  0  0  0  0  0  0  0  0
   14.9884    9.7571   14.2850 C   0  0  0  0  0  0  0  0  0  0  0  0
   14.5160    8.3840   14.0973 C   0  0  0  0  0  0  0  0  0  0  0  0
   14.1462    8.0254   12.9913 O   0  0  0  0  0  0  0  0  0  0  0  0
   14.4677    7.5610   15.1788 N   0  0  0  0  0  0  0  0  0  0  0  0
   14.0898    6.1806   14.9663 C   0  0  0  0  0  0  0  0  0  0  0  0
   12.6862    6.0563   14.4337 C   0  0  0  0  0  0  0  0  0  0  0  0
   12.2589    5.2961   13.3607 C   0  0  0  0  0  0  0  0  0  0  0  0
   10.8591    5.4027   13.1279 C   0  0  0  0  0  0  0  0  0  0  0  0
   10.2567    6.2506   14.0275 C   0  0  0  0  0  0  0  0  0  0  0  0
   11.3739    6.9103   15.1410 S   0  0  0  0  0  0  0  0  0  0  0  0
   15.6708   10.2825   13.2252 C   0  0  0  0  0  0  0  0  0  0  0  0
  1  2  1  0
  2  3  1  0
  3  4  1  1
  4  5  1  0
  5  6  1  0
  6  7  1  0
  7  8  1  0
  8  9  1  0
  3 10  1  0
 10 11  2  0
 10 12  1  0
 12 13  1  0
 13 14  2  0
 14 15  1  0
 15 16  2  0
 16 17  1  0
 17 18  1  0
 18 19  2  0
 18 20  1  0
 20 21  1  0
 21 22  1  0
 22 23  2  0
 23 24  1  0
 24 25  2  0
 25 26  1  0
 17 27  2  0
  9  5  1  0
 27 13  1  0
 26 22  1  0
M  END
>  <HIPPO ID>  (54) 
16689

>  <ref_url>  (54) 
None

>  <ref_pdb>  (54) 
c0270a

>  <inchikey>  (54) 
KSVKSMSOIXOMEB-LJQANCHMSA-N

>  <original SMILES>  (54) 
CO[C@H](CC1CCCC1)C(=O)Nc1cccc(C(=O)NCc2cccs2)c1

>  <generation_date>  (54) 
None

>  <tags>  (54) 
[]

>  <ref_mols>  (54) 
c0692a,c0892a

>  <alias>  (54) 
None

>  <original ID>  (54) 
KSVKSMSOIXOMEB-LJQANCHMSA-N

>  <exports>  (54) 
['/opt/xchem-fragalysis-2/maxwin/CHIKV_HIPPO/hippo_prod/CHIKV_prod11c_recipes/Recipe_1GJWBFH_poses.sdf', '/opt/xchem-fragalysis-2/maxwin/CHIKV_HIPPO/hippo_prod/CHIKV_prod11c_recipes/Recipe_1GJXK8G_poses.sdf', '/opt/xchem-fragalysis-2/maxwin/CHIKV_HIPPO/hippo_prod/CHIKV_prod11c_recipes/Recipe_1GJXW46_poses.sdf']

>  <method>  (54) 
None

>  <submitter_email>  (54) 
None

>  <submitter_name>  (54) 
None

$$$$
KSVKSMSOIXOMEB-IBGZPJMESA-N
     RDKit          3D

 27 29  0  0  0  0  0  0  0  0999 V2000
   17.4679   12.7635   12.3115 C   0  0  0  0  0  0  0  0  0  0  0  0
   16.9055   11.4729   12.3431 O   0  0  0  0  0  0  0  0  0  0  0  0
   16.2693   11.1138   11.1169 C   0  0  1  0  0  0  0  0  0  0  0  0
   16.2451    9.5847   11.1050 C   0  0  0  0  0  0  0  0  0  0  0  0
   15.0110    8.9821   10.5097 C   0  0  0  0  0  0  0  0  0  0  0  0
   14.7332    7.5412   10.8818 C   0  0  0  0  0  0  0  0  0  0  0  0
   13.7040    7.0993    9.8484 C   0  0  0  0  0  0  0  0  0  0  0  0
   13.6218    8.2503    8.8400 C   0  0  0  0  0  0  0  0  0  0  0  0
   14.9285    8.9904    9.0110 C   0  0  0  0  0  0  0  0  0  0  0  0
   14.8700   11.7869   10.8276 C   0  0  0  0  0  0  0  0  0  0  0  0
   14.3146   11.7075    9.7368 O   0  0  0  0  0  0  0  0  0  0  0  0
   14.2678   12.5491   11.7911 N   0  0  0  0  0  0  0  0  0  0  0  0
   14.3244   12.2059   13.1386 C   0  0  0  0  0  0  0  0  0  0  0  0
   14.5149   13.1644   14.1148 C   0  0  0  0  0  0  0  0  0  0  0  0
   14.9526   12.7478   15.3748 C   0  0  0  0  0  0  0  0  0  0  0  0
   15.1992   11.3923   15.6362 C   0  0  0  0  0  0  0  0  0  0  0  0
   14.8881   10.4459   14.6718 C   0  0  0  0  0  0  0  0  0  0  0  0
   15.1818    9.0113   14.8331 C   0  0  0  0  0  0  0  0  0  0  0  0
   16.2055    8.6505   15.3855 O   0  0  0  0  0  0  0  0  0  0  0  0
   14.2223    8.1737   14.3426 N   0  0  0  0  0  0  0  0  0  0  0  0
   14.2277    6.7451   14.5468 C   0  0  0  0  0  0  0  0  0  0  0  0
   12.8864    6.2493   14.0952 C   0  0  0  0  0  0  0  0  0  0  0  0
   12.5813    5.3838   13.0645 C   0  0  0  0  0  0  0  0  0  0  0  0
   11.1762    5.2120   12.9017 C   0  0  0  0  0  0  0  0  0  0  0  0
   10.4509    5.9403   13.8152 C   0  0  0  0  0  0  0  0  0  0  0  0
   11.4586    6.8310   14.8641 S   0  0  0  0  0  0  0  0  0  0  0  0
   14.3803   10.8625   13.4645 C   0  0  0  0  0  0  0  0  0  0  0  0
  1  2  1  0
  2  3  1  0
  3  4  1  1
  4  5  1  0
  5  6  1  0
  6  7  1  0
  7  8  1  0
  8  9  1  0
  3 10  1  0
 10 11  2  0
 10 12  1  0
 12 13  1  0
 13 14  2  0
 14 15  1  0
 15 16  2  0
 16 17  1  0
 17 18  1  0
 18 19  2  0
 18 20  1  0
 20 21  1  0
 21 22  1  0
 22 23  2  0
 23 24  1  0
 24 25  2  0
 25 26  1  0
 17 27  2  0
  9  5  1  0
 27 13  1  0
 26 22  1  0
M  END
>  <HIPPO ID>  (55) 
16690

>  <ref_url>  (55) 
None

>  <ref_pdb>  (55) 
c0270a

>  <inchikey>  (55) 
KSVKSMSOIXOMEB-IBGZPJMESA-N

>  <original SMILES>  (55) 
CO[C@@H](CC1CCCC1)C(=O)Nc1cccc(C(=O)NCc2cccs2)c1

>  <generation_date>  (55) 
None

>  <tags>  (55) 
[]

>  <ref_mols>  (55) 
c0692a,c0892a

>  <alias>  (55) 
None

>  <original ID>  (55) 
KSVKSMSOIXOMEB-IBGZPJMESA-N

>  <exports>  (55) 
['/opt/xchem-fragalysis-2/maxwin/CHIKV_HIPPO/hippo_prod/CHIKV_prod11c_recipes/Recipe_1GJWBFH_poses.sdf', '/opt/xchem-fragalysis-2/maxwin/CHIKV_HIPPO/hippo_prod/CHIKV_prod11c_recipes/Recipe_1GJXK8G_poses.sdf', '/opt/xchem-fragalysis-2/maxwin/CHIKV_HIPPO/hippo_prod/CHIKV_prod11c_recipes/Recipe_1GJXW46_poses.sdf']

>  <method>  (55) 
None

>  <submitter_email>  (55) 
None

>  <submitter_name>  (55) 
None

$$$$
JEYFOTYCFZKWFC-GOSISDBHSA-N
     RDKit          3D

 27 28  0  0  0  0  0  0  0  0999 V2000
   17.5544   10.1816   10.6245 C   0  0  0  0  0  0  0  0  0  0  0  0
   16.5160    9.0443   10.5440 C   0  0  0  0  0  0  0  0  0  0  0  0
   15.1187    9.3191   11.1890 C   0  0  0  0  0  0  0  0  0  0  0  0
   14.8487    8.3841   12.3770 C   0  0  0  0  0  0  0  0  0  0  0  0
   15.9974    7.9419   13.2423 C   0  0  0  0  0  0  0  0  0  0  0  0
   14.9329   10.8534   11.1309 C   0  0  1  0  0  0  0  0  0  0  0  0
   15.0564   11.2192    9.7199 O   0  0  0  0  0  0  0  0  0  0  0  0
   14.4651   10.3329    8.7845 C   0  0  0  0  0  0  0  0  0  0  0  0
   13.8465   11.8618   11.5477 C   0  0  0  0  0  0  0  0  0  0  0  0
   12.8753   12.1459   10.8520 O   0  0  0  0  0  0  0  0  0  0  0  0
   14.1025   12.7084   12.5913 N   0  0  0  0  0  0  0  0  0  0  0  0
   14.7002   12.4106   13.8048 C   0  0  0  0  0  0  0  0  0  0  0  0
   15.2690   13.4156   14.5652 C   0  0  0  0  0  0  0  0  0  0  0  0
   15.8661   13.0782   15.7774 C   0  0  0  0  0  0  0  0  0  0  0  0
   15.8752   11.7485   16.2313 C   0  0  0  0  0  0  0  0  0  0  0  0
   16.5949   11.4411   17.7566 Cl  0  0  0  0  0  0  0  0  0  0  0  0
   15.2406   10.7545   15.4960 C   0  0  0  0  0  0  0  0  0  0  0  0
   15.1714    9.3265   15.9140 C   0  0  0  0  0  0  0  0  0  0  0  0
   16.1547    8.7454   16.3499 O   0  0  0  0  0  0  0  0  0  0  0  0
   13.9592    8.7003   15.7019 N   0  0  0  0  0  0  0  0  0  0  0  0
   13.7177    7.3135   16.0468 C   0  0  0  0  0  0  0  0  0  0  0  0
   12.7313    6.7425   15.0684 C   0  0  0  0  0  0  0  0  0  0  0  0
   12.9531    5.8284   14.0536 C   0  0  0  0  0  0  0  0  0  0  0  0
   11.7670    5.5147   13.3264 C   0  0  0  0  0  0  0  0  0  0  0  0
   10.6728    6.1892   13.8174 C   0  0  0  0  0  0  0  0  0  0  0  0
   11.0762    7.1934   15.1392 S   0  0  0  0  0  0  0  0  0  0  0  0
   14.6398   11.1175   14.2965 C   0  0  0  0  0  0  0  0  0  0  0  0
  1  2  1  0
  2  3  1  0
  3  4  1  0
  4  5  1  0
  3  6  1  0
  6  7  1  6
  7  8  1  0
  6  9  1  0
  9 10  2  0
  9 11  1  0
 11 12  1  0
 12 13  2  0
 13 14  1  0
 14 15  2  0
 15 16  1  0
 15 17  1  0
 17 18  1  0
 18 19  2  0
 18 20  1  0
 20 21  1  0
 21 22  1  0
 22 23  2  0
 23 24  1  0
 24 25  2  0
 25 26  1  0
 17 27  2  0
 27 12  1  0
 26 22  1  0
M  END
>  <HIPPO ID>  (56) 
16746

>  <ref_url>  (56) 
None

>  <ref_pdb>  (56) 
c0270a

>  <inchikey>  (56) 
JEYFOTYCFZKWFC-GOSISDBHSA-N

>  <original SMILES>  (56) 
CCC(CC)[C@@H](OC)C(=O)Nc1ccc(Cl)c(C(=O)NCc2cccs2)c1

>  <generation_date>  (56) 
None

>  <tags>  (56) 
[]

>  <ref_mols>  (56) 
c0692a,c0892a

>  <alias>  (56) 
None

>  <original ID>  (56) 
JEYFOTYCFZKWFC-GOSISDBHSA-N

>  <exports>  (56) 
['/opt/xchem-fragalysis-2/maxwin/CHIKV_HIPPO/hippo_prod/CHIKV_prod11c_recipes/Recipe_1GJWBFH_poses.sdf', '/opt/xchem-fragalysis-2/maxwin/CHIKV_HIPPO/hippo_prod/CHIKV_prod11c_recipes/Recipe_1GJXK8G_poses.sdf', '/opt/xchem-fragalysis-2/maxwin/CHIKV_HIPPO/hippo_prod/CHIKV_prod11c_recipes/Recipe_1GJXW46_poses.sdf']

>  <method>  (56) 
None

>  <submitter_email>  (56) 
None

>  <submitter_name>  (56) 
None

$$$$
DAEFBPXAGHSVFP-LJQANCHMSA-N
     RDKit          3D

 28 30  0  0  0  0  0  0  0  0999 V2000
   14.9078    9.4610   13.8358 C   0  0  0  0  0  0  0  0  0  0  0  0
   15.4975   10.4770   13.0308 O   0  0  0  0  0  0  0  0  0  0  0  0
   14.5807   10.9444   12.0812 C   0  0  2  0  0  0  0  0  0  0  0  0
   14.5162    9.9462   10.9443 C   0  0  0  0  0  0  0  0  0  0  0  0
   15.6178    9.0304   10.5057 C   0  0  0  0  0  0  0  0  0  0  0  0
   15.8935    7.8168   11.4039 C   0  0  0  0  0  0  0  0  0  0  0  0
   14.7239    6.8556   11.2621 C   0  0  0  0  0  0  0  0  0  0  0  0
   14.1663    7.1490    9.8809 C   0  0  0  0  0  0  0  0  0  0  0  0
   14.9888    8.3191    9.3131 C   0  0  0  0  0  0  0  0  0  0  0  0
   14.5551   12.3716   11.5193 C   0  0  0  0  0  0  0  0  0  0  0  0
   14.2748   12.5769   10.3330 O   0  0  0  0  0  0  0  0  0  0  0  0
   14.7539   13.4641   12.3054 N   0  0  0  0  0  0  0  0  0  0  0  0
   15.1562   13.5797   13.6366 C   0  0  0  0  0  0  0  0  0  0  0  0
   15.8868   14.7125   13.9785 C   0  0  0  0  0  0  0  0  0  0  0  0
   16.4275   14.8233   15.2558 C   0  0  0  0  0  0  0  0  0  0  0  0
   16.2605   13.7901   16.1855 C   0  0  0  0  0  0  0  0  0  0  0  0
   17.0502   13.9549   17.6996 Cl  0  0  0  0  0  0  0  0  0  0  0  0
   15.5104   12.6656   15.8638 C   0  0  0  0  0  0  0  0  0  0  0  0
   15.3060   11.5514   16.8298 C   0  0  0  0  0  0  0  0  0  0  0  0
   14.7105   11.7672   17.8769 O   0  0  0  0  0  0  0  0  0  0  0  0
   15.7896   10.3071   16.4766 N   0  0  0  0  0  0  0  0  0  0  0  0
   15.6662    9.1379   17.3479 C   0  0  0  0  0  0  0  0  0  0  0  0
   15.0233    7.9783   16.6251 C   0  0  0  0  0  0  0  0  0  0  0  0
   15.6262    6.9246   15.9559 C   0  0  0  0  0  0  0  0  0  0  0  0
   14.6849    6.0800   15.2912 C   0  0  0  0  0  0  0  0  0  0  0  0
   13.3895    6.4885   15.5062 C   0  0  0  0  0  0  0  0  0  0  0  0
   13.3137    7.8092   16.5846 S   0  0  0  0  0  0  0  0  0  0  0  0
   14.8807   12.6324   14.6204 C   0  0  0  0  0  0  0  0  0  0  0  0
  1  2  1  0
  2  3  1  0
  3  4  1  6
  4  5  1  0
  5  6  1  0
  6  7  1  0
  7  8  1  0
  8  9  1  0
  3 10  1  0
 10 11  2  0
 10 12  1  0
 12 13  1  0
 13 14  2  0
 14 15  1  0
 15 16  2  0
 16 17  1  0
 16 18  1  0
 18 19  1  0
 19 20  2  0
 19 21  1  0
 21 22  1  0
 22 23  1  0
 23 24  2  0
 24 25  1  0
 25 26  2  0
 26 27  1  0
 18 28  2  0
  9  5  1  0
 28 13  1  0
 27 23  1  0
M  END
>  <HIPPO ID>  (57) 
16813

>  <ref_url>  (57) 
None

>  <ref_pdb>  (57) 
c0270a

>  <inchikey>  (57) 
DAEFBPXAGHSVFP-LJQANCHMSA-N

>  <original SMILES>  (57) 
CO[C@H](CC1CCCC1)C(=O)Nc1ccc(Cl)c(C(=O)NCc2cccs2)c1

>  <generation_date>  (57) 
None

>  <tags>  (57) 
[]

>  <ref_mols>  (57) 
c0692a,c0892a

>  <alias>  (57) 
None

>  <original ID>  (57) 
DAEFBPXAGHSVFP-LJQANCHMSA-N

>  <exports>  (57) 
['/opt/xchem-fragalysis-2/maxwin/CHIKV_HIPPO/hippo_prod/CHIKV_prod11c_recipes/Recipe_1GJWBFH_poses.sdf', '/opt/xchem-fragalysis-2/maxwin/CHIKV_HIPPO/hippo_prod/CHIKV_prod11c_recipes/Recipe_1GJXK8G_poses.sdf', '/opt/xchem-fragalysis-2/maxwin/CHIKV_HIPPO/hippo_prod/CHIKV_prod11c_recipes/Recipe_1GJXW46_poses.sdf']

>  <method>  (57) 
None

>  <submitter_email>  (57) 
None

>  <submitter_name>  (57) 
None

$$$$
OFNWGMGELABUDG-UHFFFAOYSA-N
     RDKit          3D

 18 19  0  0  0  0  0  0  0  0999 V2000
   13.3776    6.4153   12.0963 C   0  0  0  0  0  0  0  0  0  0  0  0
   13.8129    7.1758   10.9781 O   0  0  0  0  0  0  0  0  0  0  0  0
   14.5629    8.2948   11.2107 C   0  0  0  0  0  0  0  0  0  0  0  0
   14.9290    8.9880   10.0609 C   0  0  0  0  0  0  0  0  0  0  0  0
   15.5782   10.2226   10.1645 C   0  0  0  0  0  0  0  0  0  0  0  0
   15.9406   10.7621   11.4083 C   0  0  0  0  0  0  0  0  0  0  0  0
   16.5733   12.0227   11.5225 N   0  0  0  0  0  0  0  0  0  0  0  0
   17.9555   12.3504   11.6754 C   0  0  0  0  0  0  0  0  0  0  0  0
   19.0030   11.7103   11.0084 C   0  0  0  0  0  0  0  0  0  0  0  0
   18.7464   10.5389   10.1549 C   0  0  0  0  0  0  0  0  0  0  0  0
   20.3373   12.1384   11.1505 C   0  0  0  0  0  0  0  0  0  0  0  0
   20.6433   13.2313   11.9459 C   0  0  0  0  0  0  0  0  0  0  0  0
   19.6192   13.9045   12.5997 C   0  0  0  0  0  0  0  0  0  0  0  0
   18.2999   13.4657   12.4564 C   0  0  0  0  0  0  0  0  0  0  0  0
   17.2886   14.1093   13.1224 O   0  0  0  0  0  0  0  0  0  0  0  0
   15.5931   10.0530   12.5532 C   0  0  0  0  0  0  0  0  0  0  0  0
   14.8913    8.8517   12.4496 C   0  0  0  0  0  0  0  0  0  0  0  0
   14.4494    8.3097   13.5923 F   0  0  0  0  0  0  0  0  0  0  0  0
  1  2  1  0
  2  3  1  0
  3  4  2  0
  4  5  1  0
  5  6  2  0
  6  7  1  0
  7  8  1  0
  8  9  2  0
  9 10  1  0
  9 11  1  0
 11 12  2  0
 12 13  1  0
 13 14  2  0
 14 15  1  0
  6 16  1  0
 16 17  2  0
 17 18  1  0
 17  3  1  0
 14  8  1  0
M  END
>  <HIPPO ID>  (58) 
17969

>  <ref_url>  (58) 
None

>  <ref_pdb>  (58) 
c0270a

>  <inchikey>  (58) 
OFNWGMGELABUDG-UHFFFAOYSA-N

>  <original SMILES>  (58) 
COc1ccc(Nc2c(C)cccc2O)cc1F

>  <generation_date>  (58) 
None

>  <tags>  (58) 
[]

>  <ref_mols>  (58) 
c0935a,c1116a

>  <alias>  (58) 
None

>  <original ID>  (58) 
OFNWGMGELABUDG-UHFFFAOYSA-N

>  <exports>  (58) 
['/opt/xchem-fragalysis-2/maxwin/CHIKV_HIPPO/hippo_prod/CHIKV_prod11c_recipes/Recipe_1GJWBFH_poses.sdf', '/opt/xchem-fragalysis-2/maxwin/CHIKV_HIPPO/hippo_prod/CHIKV_prod11c_recipes/Recipe_1GJXK8G_poses.sdf', '/opt/xchem-fragalysis-2/maxwin/CHIKV_HIPPO/hippo_prod/CHIKV_prod11c_recipes/Recipe_1GJXW46_poses.sdf']

>  <method>  (58) 
None

>  <submitter_email>  (58) 
None

>  <submitter_name>  (58) 
None

$$$$
CPTCCXRJTWYYNV-UHFFFAOYSA-N
     RDKit          3D

 18 19  0  0  0  0  0  0  0  0999 V2000
   13.3896    6.2406   11.8672 C   0  0  0  0  0  0  0  0  0  0  0  0
   13.8458    7.1586   10.8913 O   0  0  0  0  0  0  0  0  0  0  0  0
   14.5732    8.2638   11.2244 C   0  0  0  0  0  0  0  0  0  0  0  0
   14.9195    9.0030   10.0870 C   0  0  0  0  0  0  0  0  0  0  0  0
   15.5486   10.2460   10.1966 C   0  0  0  0  0  0  0  0  0  0  0  0
   15.9164   10.7596   11.4414 C   0  0  0  0  0  0  0  0  0  0  0  0
   16.5367   12.0281   11.5950 N   0  0  0  0  0  0  0  0  0  0  0  0
   17.9263   12.3537   11.7036 C   0  0  0  0  0  0  0  0  0  0  0  0
   18.9595   11.7122   11.0142 C   0  0  0  0  0  0  0  0  0  0  0  0
   18.6945   10.5420   10.1597 C   0  0  0  0  0  0  0  0  0  0  0  0
   20.3015   12.1265   11.1471 C   0  0  0  0  0  0  0  0  0  0  0  0
   20.6310   13.2037   11.9548 C   0  0  0  0  0  0  0  0  0  0  0  0
   19.6206   13.8836   12.6193 C   0  0  0  0  0  0  0  0  0  0  0  0
   18.2970   13.4707   12.4710 C   0  0  0  0  0  0  0  0  0  0  0  0
   17.3388   14.1826   13.1414 O   0  0  0  0  0  0  0  0  0  0  0  0
   15.6106   10.0072   12.5732 C   0  0  0  0  0  0  0  0  0  0  0  0
   14.9174    8.7895   12.4773 C   0  0  0  0  0  0  0  0  0  0  0  0
   14.4423    8.1321   14.0025 Cl  0  0  0  0  0  0  0  0  0  0  0  0
  1  2  1  0
  2  3  1  0
  3  4  2  0
  4  5  1  0
  5  6  2  0
  6  7  1  0
  7  8  1  0
  8  9  2  0
  9 10  1  0
  9 11  1  0
 11 12  2  0
 12 13  1  0
 13 14  2  0
 14 15  1  0
  6 16  1  0
 16 17  2  0
 17 18  1  0
 17  3  1  0
 14  8  1  0
M  END
>  <HIPPO ID>  (59) 
17971

>  <ref_url>  (59) 
None

>  <ref_pdb>  (59) 
c0270a

>  <inchikey>  (59) 
CPTCCXRJTWYYNV-UHFFFAOYSA-N

>  <original SMILES>  (59) 
COc1ccc(Nc2c(C)cccc2O)cc1Cl

>  <generation_date>  (59) 
None

>  <tags>  (59) 
[]

>  <ref_mols>  (59) 
c0935a,c1116a

>  <alias>  (59) 
None

>  <original ID>  (59) 
CPTCCXRJTWYYNV-UHFFFAOYSA-N

>  <exports>  (59) 
['/opt/xchem-fragalysis-2/maxwin/CHIKV_HIPPO/hippo_prod/CHIKV_prod11c_recipes/Recipe_1GJWBFH_poses.sdf', '/opt/xchem-fragalysis-2/maxwin/CHIKV_HIPPO/hippo_prod/CHIKV_prod11c_recipes/Recipe_1GJXK8G_poses.sdf', '/opt/xchem-fragalysis-2/maxwin/CHIKV_HIPPO/hippo_prod/CHIKV_prod11c_recipes/Recipe_1GJXW46_poses.sdf']

>  <method>  (59) 
None

>  <submitter_email>  (59) 
None

>  <submitter_name>  (59) 
None

$$$$
FLCJJYVOSYGQLU-UHFFFAOYSA-N
     RDKit          3D

 20 21  0  0  0  0  0  0  0  0999 V2000
   22.7171   11.3318   10.9815 C   0  0  0  0  0  0  0  0  0  0  0  0
   22.0058   12.4819   10.5800 O   0  0  0  0  0  0  0  0  0  0  0  0
   20.8369   12.5734   11.2612 C   0  0  0  0  0  0  0  0  0  0  0  0
   19.7567   11.8501   10.7913 C   0  0  0  0  0  0  0  0  0  0  0  0
   18.4804   12.1066   11.2753 C   0  0  0  0  0  0  0  0  0  0  0  0
   17.4333   11.4177   10.6682 N   0  0  0  0  0  0  0  0  0  0  0  0
   16.4896   10.5037   11.1283 C   0  0  0  0  0  0  0  0  0  0  0  0
   15.7976    9.8342   10.1268 C   0  0  0  0  0  0  0  0  0  0  0  0
   14.8819    8.8562   10.4363 C   0  0  0  0  0  0  0  0  0  0  0  0
   13.6715    8.3093    8.9303 I   0  0  0  0  0  0  0  0  0  0  0  0
   14.6868    8.4602   11.7442 C   0  0  0  0  0  0  0  0  0  0  0  0
   13.8828    7.3801   12.0004 O   0  0  0  0  0  0  0  0  0  0  0  0
   15.2494    9.2330   12.7583 C   0  0  0  0  0  0  0  0  0  0  0  0
   14.6710    8.9436   14.7357 I   0  0  0  0  0  0  0  0  0  0  0  0
   16.1416   10.2689   12.4526 C   0  0  0  0  0  0  0  0  0  0  0  0
   18.3149   13.0656   12.2728 C   0  0  0  0  0  0  0  0  0  0  0  0
   19.4245   13.7792   12.7815 C   0  0  0  0  0  0  0  0  0  0  0  0
   19.1977   14.8773   13.7732 C   0  0  0  0  0  0  0  0  0  0  0  0
   20.7016   13.5019   12.2851 C   0  0  0  0  0  0  0  0  0  0  0  0
   22.4477   14.4021   13.0575 I   0  0  0  0  0  0  0  0  0  0  0  0
  1  2  1  0
  2  3  1  0
  3  4  2  0
  4  5  1  0
  5  6  1  0
  6  7  1  0
  7  8  2  0
  8  9  1  0
  9 10  1  0
  9 11  2  0
 11 12  1  0
 11 13  1  0
 13 14  1  0
 13 15  2  0
  5 16  2  0
 16 17  1  0
 17 18  1  0
 17 19  2  0
 19 20  1  0
 19  3  1  0
 15  7  1  0
M  END
>  <HIPPO ID>  (60) 
18661

>  <ref_url>  (60) 
None

>  <ref_pdb>  (60) 
c0270a

>  <inchikey>  (60) 
FLCJJYVOSYGQLU-UHFFFAOYSA-N

>  <original SMILES>  (60) 
COc1cc(Nc2cc(I)c(O)c(I)c2)cc(C)c1I

>  <generation_date>  (60) 
None

>  <tags>  (60) 
[]

>  <ref_mols>  (60) 
c0935a,c1116a

>  <alias>  (60) 
None

>  <original ID>  (60) 
FLCJJYVOSYGQLU-UHFFFAOYSA-N

>  <exports>  (60) 
['/opt/xchem-fragalysis-2/maxwin/CHIKV_HIPPO/hippo_prod/CHIKV_prod11c_recipes/Recipe_1GJXK8G_poses.sdf', '/opt/xchem-fragalysis-2/maxwin/CHIKV_HIPPO/hippo_prod/CHIKV_prod11c_recipes/Recipe_1GJXW46_poses.sdf']

>  <method>  (60) 
None

>  <submitter_email>  (60) 
None

>  <submitter_name>  (60) 
None

$$$$
DTSZEJFKVVQXKM-UHFFFAOYSA-N
     RDKit          3D

 21 23  0  0  0  0  0  0  0  0999 V2000
   13.5423    6.5724   12.5081 C   0  0  0  0  0  0  0  0  0  0  0  0
   13.7056    7.2676   11.2798 O   0  0  0  0  0  0  0  0  0  0  0  0
   14.5988    8.3029   11.2715 C   0  0  0  0  0  0  0  0  0  0  0  0
   15.0948    8.6162   10.0194 C   0  0  0  0  0  0  0  0  0  0  0  0
   16.0713    9.6028    9.8903 C   0  0  0  0  0  0  0  0  0  0  0  0
   16.5746   10.3222   10.9933 C   0  0  0  0  0  0  0  0  0  0  0  0
   17.6700   11.1702   10.7647 N   0  0  0  0  0  0  0  0  0  0  0  0
   18.4393   12.1694   11.3991 C   0  0  0  0  0  0  0  0  0  0  0  0
   19.8278   12.2091   11.0853 C   0  0  0  0  0  0  0  0  0  0  0  0
   20.3124   11.1616   10.3398 O   0  0  0  0  0  0  0  0  0  0  0  0
   21.6752   10.8709   10.6340 C   0  0  0  0  0  0  0  0  0  0  0  0
   20.6955   13.2249   11.5291 C   0  0  0  0  0  0  0  0  0  0  0  0
   20.2414   14.1888   12.3946 C   0  0  0  0  0  0  0  0  0  0  0  0
   18.9171   14.1239   12.7708 C   0  0  0  0  0  0  0  0  0  0  0  0
   18.0193   13.1323   12.3036 C   0  0  0  0  0  0  0  0  0  0  0  0
   16.6850   13.3529   12.9351 C   0  0  0  0  0  0  0  0  0  0  0  0
   16.8033   14.7594   13.5378 C   0  0  0  0  0  0  0  0  0  0  0  0
   18.2796   15.0919   13.7072 C   0  0  0  0  0  0  0  0  0  0  0  0
   15.9664   10.0975   12.2198 C   0  0  0  0  0  0  0  0  0  0  0  0
   14.9979    9.0909   12.3544 C   0  0  0  0  0  0  0  0  0  0  0  0
   14.4402    8.9183   13.5626 F   0  0  0  0  0  0  0  0  0  0  0  0
  1  2  1  0
  2  3  1  0
  3  4  2  0
  4  5  1  0
  5  6  2  0
  6  7  1  0
  7  8  1  0
  8  9  2  0
  9 10  1  0
 10 11  1  0
  9 12  1  0
 12 13  2  0
 13 14  1  0
 14 15  2  0
 15 16  1  0
 16 17  1  0
 17 18  1  0
  6 19  1  0
 19 20  2  0
 20 21  1  0
 20  3  1  0
 15  8  1  0
 18 14  1  0
M  END
>  <HIPPO ID>  (61) 
19571

>  <ref_url>  (61) 
None

>  <ref_pdb>  (61) 
c0270a

>  <inchikey>  (61) 
DTSZEJFKVVQXKM-UHFFFAOYSA-N

>  <original SMILES>  (61) 
COc1ccc(Nc2c(OC)ccc3c2CCC3)cc1F

>  <generation_date>  (61) 
None

>  <tags>  (61) 
[]

>  <ref_mols>  (61) 
c0935a,c1116a

>  <alias>  (61) 
None

>  <original ID>  (61) 
DTSZEJFKVVQXKM-UHFFFAOYSA-N

>  <exports>  (61) 
['/opt/xchem-fragalysis-2/maxwin/CHIKV_HIPPO/hippo_prod/CHIKV_prod11c_recipes/Recipe_1GJWBFH_poses.sdf', '/opt/xchem-fragalysis-2/maxwin/CHIKV_HIPPO/hippo_prod/CHIKV_prod11c_recipes/Recipe_1GJXK8G_poses.sdf', '/opt/xchem-fragalysis-2/maxwin/CHIKV_HIPPO/hippo_prod/CHIKV_prod11c_recipes/Recipe_1GJXW46_poses.sdf']

>  <method>  (61) 
None

>  <submitter_email>  (61) 
None

>  <submitter_name>  (61) 
None

$$$$
WUQJMUSEGZXREA-UHFFFAOYSA-N
     RDKit          3D

 22 23  0  0  0  0  0  0  0  0999 V2000
   23.1040   12.8192   11.1363 C   0  0  0  0  0  0  0  0  0  0  0  0
   22.1087   13.3165   12.0353 O   0  0  0  0  0  0  0  0  0  0  0  0
   20.8285   12.8852   11.8465 C   0  0  0  0  0  0  0  0  0  0  0  0
   20.4800   11.8357   11.0332 C   0  0  0  0  0  0  0  0  0  0  0  0
   19.1306   11.4955   10.9088 C   0  0  0  0  0  0  0  0  0  0  0  0
   18.8861   10.4291    9.9755 C   0  0  0  0  0  0  0  0  0  0  0  0
   17.8393    9.8127    9.9892 O   0  0  0  0  0  0  0  0  0  0  0  0
   18.0737   12.1465   11.5693 C   0  0  0  0  0  0  0  0  0  0  0  0
   16.6898   11.8704   11.2306 N   0  0  0  0  0  0  0  0  0  0  0  0
   15.8939   10.6683   11.3701 C   0  0  0  0  0  0  0  0  0  0  0  0
   15.2898   10.1488   10.1861 C   0  0  0  0  0  0  0  0  0  0  0  0
   14.6815    8.9083   10.1829 C   0  0  0  0  0  0  0  0  0  0  0  0
   14.1710    8.4021    9.0515 F   0  0  0  0  0  0  0  0  0  0  0  0
   14.5600    8.2037   11.3668 C   0  0  0  0  0  0  0  0  0  0  0  0
   13.8998    7.0066   11.3747 O   0  0  0  0  0  0  0  0  0  0  0  0
   15.0086    8.7560   12.5663 C   0  0  0  0  0  0  0  0  0  0  0  0
   15.6492   10.0055   12.5704 C   0  0  0  0  0  0  0  0  0  0  0  0
   16.0668   10.7147   14.0777 Cl  0  0  0  0  0  0  0  0  0  0  0  0
   18.4470   13.2138   12.4015 C   0  0  0  0  0  0  0  0  0  0  0  0
   17.4294   13.8662   13.0443 O   0  0  0  0  0  0  0  0  0  0  0  0
   17.7458   15.1023   13.6697 C   0  0  0  0  0  0  0  0  0  0  0  0
   19.8151   13.5607   12.5384 C   0  0  0  0  0  0  0  0  0  0  0  0
  1  2  1  0
  2  3  1  0
  3  4  2  0
  4  5  1  0
  5  6  1  0
  6  7  2  0
  5  8  2  0
  8  9  1  0
  9 10  1  0
 10 11  2  0
 11 12  1  0
 12 13  1  0
 12 14  2  0
 14 15  1  0
 14 16  1  0
 16 17  2  0
 17 18  1  0
  8 19  1  0
 19 20  1  0
 20 21  1  0
 19 22  2  0
 22  3  1  0
 17 10  1  0
M  END
>  <HIPPO ID>  (62) 
20979

>  <ref_url>  (62) 
None

>  <ref_pdb>  (62) 
c0270a

>  <inchikey>  (62) 
WUQJMUSEGZXREA-UHFFFAOYSA-N

>  <original SMILES>  (62) 
COc1cc(C=O)c(Nc2cc(F)c(O)cc2Cl)c(OC)c1

>  <generation_date>  (62) 
None

>  <tags>  (62) 
[]

>  <ref_mols>  (62) 
c0935a,c1116a

>  <alias>  (62) 
None

>  <original ID>  (62) 
WUQJMUSEGZXREA-UHFFFAOYSA-N

>  <exports>  (62) 
['/opt/xchem-fragalysis-2/maxwin/CHIKV_HIPPO/hippo_prod/CHIKV_prod11c_recipes/Recipe_1GJWBFH_poses.sdf', '/opt/xchem-fragalysis-2/maxwin/CHIKV_HIPPO/hippo_prod/CHIKV_prod11c_recipes/Recipe_1GJXK8G_poses.sdf', '/opt/xchem-fragalysis-2/maxwin/CHIKV_HIPPO/hippo_prod/CHIKV_prod11c_recipes/Recipe_1GJXW46_poses.sdf']

>  <method>  (62) 
None

>  <submitter_email>  (62) 
None

>  <submitter_name>  (62) 
None

$$$$
OPZSPDRBUAYJSQ-UHFFFAOYSA-N
     RDKit          3D

 19 20  0  0  0  0  0  0  0  0999 V2000
   15.5408    7.6888   11.5602 C   0  0  0  0  0  0  0  0  0  0  0  0
   15.3930    9.1069   12.0805 C   0  0  0  0  0  0  0  0  0  0  0  0
   16.1279   10.2094   11.4501 N   0  0  0  0  0  0  0  0  0  0  0  0
   16.0701   11.3843   12.2143 C   0  0  0  0  0  0  0  0  0  0  0  0
   15.1687   11.5264   13.0421 O   0  0  0  0  0  0  0  0  0  0  0  0
   17.1399   12.3902   12.1276 C   0  0  0  0  0  0  0  0  0  0  0  0
   16.9636   13.6203   12.7478 C   0  0  0  0  0  0  0  0  0  0  0  0
   18.1575   14.2669   12.8040 N   0  0  0  0  0  0  0  0  0  0  0  0
   18.3720   15.5518   13.4319 C   0  0  0  0  0  0  0  0  0  0  0  0
   19.1383   13.4880   12.2457 C   0  0  0  0  0  0  0  0  0  0  0  0
   20.5313   13.6542   12.2599 C   0  0  0  0  0  0  0  0  0  0  0  0
   21.3199   12.6861   11.6506 C   0  0  0  0  0  0  0  0  0  0  0  0
   23.0257   12.7837   11.8548 Cl  0  0  0  0  0  0  0  0  0  0  0  0
   20.7364   11.6489   10.9361 C   0  0  0  0  0  0  0  0  0  0  0  0
   19.3355   11.4937   10.9276 C   0  0  0  0  0  0  0  0  0  0  0  0
   18.5071   12.3815   11.6568 C   0  0  0  0  0  0  0  0  0  0  0  0
   15.9736   10.4243   10.0172 C   0  0  0  0  0  0  0  0  0  0  0  0
   14.5493   10.5477    9.5543 C   0  0  0  0  0  0  0  0  0  0  0  0
   16.5988    9.3179    9.2595 C   0  0  0  0  0  0  0  0  0  0  0  0
  1  2  1  0
  2  3  1  0
  3  4  1  0
  4  5  2  0
  4  6  1  0
  6  7  2  0
  7  8  1  0
  8  9  1  0
  8 10  1  0
 10 11  2  0
 11 12  1  0
 12 13  1  0
 12 14  2  0
 14 15  1  0
 15 16  2  0
  3 17  1  0
 17 18  1  0
 17 19  1  0
 16  6  1  0
 16 10  1  0
M  END
>  <HIPPO ID>  (63) 
28290

>  <ref_url>  (63) 
None

>  <ref_pdb>  (63) 
c0270a

>  <inchikey>  (63) 
OPZSPDRBUAYJSQ-UHFFFAOYSA-N

>  <original SMILES>  (63) 
CCN(C(=O)c1cn(C)c2cc(Cl)ccc12)C(C)C

>  <generation_date>  (63) 
None

>  <tags>  (63) 
[]

>  <ref_mols>  (63) 
c0270a,c0894a

>  <alias>  (63) 
None

>  <original ID>  (63) 
OPZSPDRBUAYJSQ-UHFFFAOYSA-N

>  <exports>  (63) 
['/opt/xchem-fragalysis-2/maxwin/CHIKV_HIPPO/hippo_prod/CHIKV_prod11c_recipes/Recipe_1GJWBFH_poses.sdf', '/opt/xchem-fragalysis-2/maxwin/CHIKV_HIPPO/hippo_prod/CHIKV_prod11c_recipes/Recipe_1GJXK8G_poses.sdf', '/opt/xchem-fragalysis-2/maxwin/CHIKV_HIPPO/hippo_prod/CHIKV_prod11c_recipes/Recipe_1GJXW46_poses.sdf']

>  <method>  (63) 
None

>  <submitter_email>  (63) 
None

>  <submitter_name>  (63) 
None

$$$$
IICJJSQIMIVITL-UHFFFAOYSA-N
     RDKit          3D

 19 20  0  0  0  0  0  0  0  0999 V2000
   18.1763   15.2873   13.4298 C   0  0  0  0  0  0  0  0  0  0  0  0
   18.0749   14.0275   12.7248 N   0  0  0  0  0  0  0  0  0  0  0  0
   16.9204   13.3324   12.5279 C   0  0  0  0  0  0  0  0  0  0  0  0
   17.1972   12.2041   11.7698 C   0  0  0  0  0  0  0  0  0  0  0  0
   16.1797   11.1853   11.5285 C   0  0  0  0  0  0  0  0  0  0  0  0
   15.2492   11.0213   12.3161 O   0  0  0  0  0  0  0  0  0  0  0  0
   16.3163   10.3853   10.4149 N   0  0  0  0  0  0  0  0  0  0  0  0
   15.4362    9.2351   10.2425 C   0  0  0  0  0  0  0  0  0  0  0  0
   15.8317    8.1362   11.2234 C   0  0  0  0  0  0  0  0  0  0  0  0
   14.9400    6.9147   11.3936 C   0  0  0  0  0  0  0  0  0  0  0  0
   15.9629    5.5284   11.9261 Cl  0  0  0  0  0  0  0  0  0  0  0  0
   14.0371    6.4327    9.9656 Cl  0  0  0  0  0  0  0  0  0  0  0  0
   18.6047   12.2576   11.4678 C   0  0  0  0  0  0  0  0  0  0  0  0
   19.5179   11.4334   10.7681 C   0  0  0  0  0  0  0  0  0  0  0  0
   20.9042   11.6403   10.9002 C   0  0  0  0  0  0  0  0  0  0  0  0
   21.3865   12.6643   11.7066 C   0  0  0  0  0  0  0  0  0  0  0  0
   23.0712   12.8333   12.0160 Cl  0  0  0  0  0  0  0  0  0  0  0  0
   20.5135   13.5585   12.3180 C   0  0  0  0  0  0  0  0  0  0  0  0
   19.1344   13.3371   12.1888 C   0  0  0  0  0  0  0  0  0  0  0  0
  1  2  1  0
  2  3  1  0
  3  4  2  0
  4  5  1  0
  5  6  2  0
  5  7  1  0
  7  8  1  0
  8  9  1  0
  9 10  1  0
 10 11  1  0
 10 12  1  0
  4 13  1  0
 13 14  2  0
 14 15  1  0
 15 16  2  0
 16 17  1  0
 16 18  1  0
 18 19  2  0
 19  2  1  0
 19 13  1  0
M  END
>  <HIPPO ID>  (64) 
28337

>  <ref_url>  (64) 
None

>  <ref_pdb>  (64) 
c0270a

>  <inchikey>  (64) 
IICJJSQIMIVITL-UHFFFAOYSA-N

>  <original SMILES>  (64) 
Cn1cc(C(=O)NCCC(Cl)Cl)c2ccc(Cl)cc21

>  <generation_date>  (64) 
None

>  <tags>  (64) 
[]

>  <ref_mols>  (64) 
c0270a,c0894a

>  <alias>  (64) 
None

>  <original ID>  (64) 
IICJJSQIMIVITL-UHFFFAOYSA-N

>  <exports>  (64) 
['/opt/xchem-fragalysis-2/maxwin/CHIKV_HIPPO/hippo_prod/CHIKV_prod11c_recipes/Recipe_1GJWBFH_poses.sdf', '/opt/xchem-fragalysis-2/maxwin/CHIKV_HIPPO/hippo_prod/CHIKV_prod11c_recipes/Recipe_1GJXK8G_poses.sdf', '/opt/xchem-fragalysis-2/maxwin/CHIKV_HIPPO/hippo_prod/CHIKV_prod11c_recipes/Recipe_1GJXW46_poses.sdf']

>  <method>  (64) 
None

>  <submitter_email>  (64) 
None

>  <submitter_name>  (64) 
None

$$$$
WIDDNWOFRJNXLE-UHFFFAOYSA-N
     RDKit          3D

 19 20  0  0  0  0  0  0  0  0999 V2000
   14.1310    7.4962   10.0426 C   0  0  0  0  0  0  0  0  0  0  0  0
   14.7385    7.8199   11.3847 C   0  0  0  0  0  0  0  0  0  0  0  0
   16.0532    8.5550   11.3825 C   0  0  0  0  0  0  0  0  0  0  0  0
   16.1311    9.9893   11.1731 N   0  0  0  0  0  0  0  0  0  0  0  0
   15.4558   10.5344   10.0392 C   0  0  0  0  0  0  0  0  0  0  0  0
   15.8377    9.8848    8.7598 C   0  0  0  0  0  0  0  0  0  0  0  0
   16.1698   10.8339   12.2727 C   0  0  0  0  0  0  0  0  0  0  0  0
   15.5911   10.5526   13.3182 O   0  0  0  0  0  0  0  0  0  0  0  0
   17.0226   12.0301   12.1741 C   0  0  0  0  0  0  0  0  0  0  0  0
   16.7389   13.2098   12.8438 C   0  0  0  0  0  0  0  0  0  0  0  0
   17.8523   14.0001   12.8239 N   0  0  0  0  0  0  0  0  0  0  0  0
   17.9618   15.3013   13.4477 C   0  0  0  0  0  0  0  0  0  0  0  0
   18.8918   13.3330   12.2215 C   0  0  0  0  0  0  0  0  0  0  0  0
   20.2666   13.6153   12.2086 C   0  0  0  0  0  0  0  0  0  0  0  0
   21.1179   12.7128   11.5775 C   0  0  0  0  0  0  0  0  0  0  0  0
   22.8164   12.9213   11.7763 Cl  0  0  0  0  0  0  0  0  0  0  0  0
   20.6044   11.6444   10.8501 C   0  0  0  0  0  0  0  0  0  0  0  0
   19.2193   11.3832   10.8500 C   0  0  0  0  0  0  0  0  0  0  0  0
   18.3499   12.1884   11.6239 C   0  0  0  0  0  0  0  0  0  0  0  0
  1  2  1  0
  2  3  1  0
  3  4  1  0
  4  5  1  0
  5  6  1  0
  4  7  1  0
  7  8  2  0
  7  9  1  0
  9 10  2  0
 10 11  1  0
 11 12  1  0
 11 13  1  0
 13 14  2  0
 14 15  1  0
 15 16  1  0
 15 17  2  0
 17 18  1  0
 18 19  2  0
 19  9  1  0
 19 13  1  0
M  END
>  <HIPPO ID>  (65) 
28372

>  <ref_url>  (65) 
None

>  <ref_pdb>  (65) 
c0270a

>  <inchikey>  (65) 
WIDDNWOFRJNXLE-UHFFFAOYSA-N

>  <original SMILES>  (65) 
CCCN(CC)C(=O)c1cn(C)c2cc(Cl)ccc12

>  <generation_date>  (65) 
None

>  <tags>  (65) 
[]

>  <ref_mols>  (65) 
c0270a,c0894a

>  <alias>  (65) 
None

>  <original ID>  (65) 
WIDDNWOFRJNXLE-UHFFFAOYSA-N

>  <exports>  (65) 
['/opt/xchem-fragalysis-2/maxwin/CHIKV_HIPPO/hippo_prod/CHIKV_prod11c_recipes/Recipe_1GJXW46_poses.sdf']

>  <method>  (65) 
None

>  <submitter_email>  (65) 
None

>  <submitter_name>  (65) 
None

$$$$
ZFSRXWHEPOUCLA-UHFFFAOYSA-N
     RDKit          3D

 19 20  0  0  0  0  0  0  0  0999 V2000
   15.9188    9.6718   11.7678 C   0  0  0  0  0  0  0  0  0  0  0  0
   17.0683   10.5935   11.7022 N   0  0  0  0  0  0  0  0  0  0  0  0
   17.7093   10.5322   10.4246 C   0  0  0  0  0  0  0  0  0  0  0  0
   19.0466   11.1440   10.1153 C   0  0  0  0  0  0  0  0  0  0  0  0
   20.4219   10.8819   10.6369 C   0  0  0  0  0  0  0  0  0  0  0  0
   21.2092   10.1149    9.7735 O   0  0  0  0  0  0  0  0  0  0  0  0
   16.9893   11.6812   12.5696 C   0  0  0  0  0  0  0  0  0  0  0  0
   16.1475   11.6230   13.4731 O   0  0  0  0  0  0  0  0  0  0  0  0
   17.7961   12.9234   12.4882 C   0  0  0  0  0  0  0  0  0  0  0  0
   17.1002   14.1181   12.6297 C   0  0  0  0  0  0  0  0  0  0  0  0
   17.9749   15.1425   12.8112 N   0  0  0  0  0  0  0  0  0  0  0  0
   17.6115   16.4742   13.2265 C   0  0  0  0  0  0  0  0  0  0  0  0
   19.2675   14.7121   12.6937 C   0  0  0  0  0  0  0  0  0  0  0  0
   20.4798   15.4336   12.8281 C   0  0  0  0  0  0  0  0  0  0  0  0
   21.6874   14.7431   12.8873 C   0  0  0  0  0  0  0  0  0  0  0  0
   23.1608   15.5022   13.2968 Cl  0  0  0  0  0  0  0  0  0  0  0  0
   21.7045   13.3922   12.7764 C   0  0  0  0  0  0  0  0  0  0  0  0
   20.4891   12.7348   12.6839 C   0  0  0  0  0  0  0  0  0  0  0  0
   19.2095   13.3223   12.5604 C   0  0  0  0  0  0  0  0  0  0  0  0
  1  2  1  0
  2  3  1  0
  3  4  1  0
  4  5  1  0
  5  6  1  0
  2  7  1  0
  7  8  2  0
  7  9  1  0
  9 10  2  0
 10 11  1  0
 11 12  1  0
 11 13  1  0
 13 14  2  0
 14 15  1  0
 15 16  1  0
 15 17  2  0
 17 18  1  0
 18 19  2  0
 19  9  1  0
 19 13  1  0
M  END
>  <HIPPO ID>  (66) 
28417

>  <ref_url>  (66) 
None

>  <ref_pdb>  (66) 
c0270a

>  <inchikey>  (66) 
ZFSRXWHEPOUCLA-UHFFFAOYSA-N

>  <original SMILES>  (66) 
CN(CCCO)C(=O)c1cn(C)c2cc(Cl)ccc12

>  <generation_date>  (66) 
None

>  <tags>  (66) 
[]

>  <ref_mols>  (66) 
c0270a,c0894a

>  <alias>  (66) 
None

>  <original ID>  (66) 
ZFSRXWHEPOUCLA-UHFFFAOYSA-N

>  <exports>  (66) 
['/opt/xchem-fragalysis-2/maxwin/CHIKV_HIPPO/hippo_prod/CHIKV_prod11c_recipes/Recipe_1GJWBFH_poses.sdf', '/opt/xchem-fragalysis-2/maxwin/CHIKV_HIPPO/hippo_prod/CHIKV_prod11c_recipes/Recipe_1GJXK8G_poses.sdf', '/opt/xchem-fragalysis-2/maxwin/CHIKV_HIPPO/hippo_prod/CHIKV_prod11c_recipes/Recipe_1GJXW46_poses.sdf']

>  <method>  (66) 
None

>  <submitter_email>  (66) 
None

>  <submitter_name>  (66) 
None

$$$$
DTOORHIHVYJXLG-UHFFFAOYSA-N
     RDKit          3D

 19 20  0  0  0  0  0  0  0  0999 V2000
   15.3178    9.3128    8.9699 C   0  0  0  0  0  0  0  0  0  0  0  0
   15.5821    9.3732   10.3789 N   0  0  0  0  0  0  0  0  0  0  0  0
   16.5995   10.2999   10.7146 N   0  0  0  0  0  0  0  0  0  0  0  0
   16.3105   11.3309   11.5819 C   0  0  0  0  0  0  0  0  0  0  0  0
   15.2432   11.3886   12.1948 O   0  0  0  0  0  0  0  0  0  0  0  0
   17.3611   12.3194   11.8175 C   0  0  0  0  0  0  0  0  0  0  0  0
   17.0957   13.4667   12.5514 C   0  0  0  0  0  0  0  0  0  0  0  0
   18.2602   14.1372   12.7610 N   0  0  0  0  0  0  0  0  0  0  0  0
   18.3756   15.3963   13.4643 C   0  0  0  0  0  0  0  0  0  0  0  0
   19.3110   13.4244   12.2389 C   0  0  0  0  0  0  0  0  0  0  0  0
   20.6913   13.6264   12.3781 C   0  0  0  0  0  0  0  0  0  0  0  0
   21.5568   12.7242   11.7695 C   0  0  0  0  0  0  0  0  0  0  0  0
   23.2413   12.8747   12.0829 Cl  0  0  0  0  0  0  0  0  0  0  0  0
   21.0687   11.7100   10.9569 C   0  0  0  0  0  0  0  0  0  0  0  0
   19.6821   11.5192   10.8180 C   0  0  0  0  0  0  0  0  0  0  0  0
   18.7716   12.3493   11.5180 C   0  0  0  0  0  0  0  0  0  0  0  0
   15.0194    8.4815   11.2645 C   0  0  0  0  0  0  0  0  0  0  0  0
   15.2812    8.6997   12.5795 N   0  0  0  0  0  0  0  0  0  0  0  0
   14.3081    7.5336   10.9472 O   0  0  0  0  0  0  0  0  0  0  0  0
  1  2  1  0
  2  3  1  0
  3  4  1  0
  4  5  2  0
  4  6  1  0
  6  7  2  0
  7  8  1  0
  8  9  1  0
  8 10  1  0
 10 11  2  0
 11 12  1  0
 12 13  1  0
 12 14  2  0
 14 15  1  0
 15 16  2  0
  2 17  1  0
 17 18  1  0
 17 19  2  0
 16  6  1  0
 16 10  1  0
M  END
>  <HIPPO ID>  (67) 
28457

>  <ref_url>  (67) 
None

>  <ref_pdb>  (67) 
c0270a

>  <inchikey>  (67) 
DTOORHIHVYJXLG-UHFFFAOYSA-N

>  <original SMILES>  (67) 
CN(NC(=O)c1cn(C)c2cc(Cl)ccc12)C(N)=O

>  <generation_date>  (67) 
None

>  <tags>  (67) 
[]

>  <ref_mols>  (67) 
c0270a,c0894a

>  <alias>  (67) 
None

>  <original ID>  (67) 
DTOORHIHVYJXLG-UHFFFAOYSA-N

>  <exports>  (67) 
['/opt/xchem-fragalysis-2/maxwin/CHIKV_HIPPO/hippo_prod/CHIKV_prod11c_recipes/Recipe_1GJWBFH_poses.sdf', '/opt/xchem-fragalysis-2/maxwin/CHIKV_HIPPO/hippo_prod/CHIKV_prod11c_recipes/Recipe_1GJXK8G_poses.sdf', '/opt/xchem-fragalysis-2/maxwin/CHIKV_HIPPO/hippo_prod/CHIKV_prod11c_recipes/Recipe_1GJXW46_poses.sdf']

>  <method>  (67) 
None

>  <submitter_email>  (67) 
None

>  <submitter_name>  (67) 
None

$$$$
XHOFNXFGDGKUJA-UHFFFAOYSA-N
     RDKit          3D

 20 22  0  0  0  0  0  0  0  0999 V2000
   18.6087   15.6537   13.5887 C   0  0  0  0  0  0  0  0  0  0  0  0
   18.4395   14.4089   12.8746 N   0  0  0  0  0  0  0  0  0  0  0  0
   17.2484   13.7724   12.7023 C   0  0  0  0  0  0  0  0  0  0  0  0
   17.4740   12.6271   11.9640 C   0  0  0  0  0  0  0  0  0  0  0  0
   16.4532   11.6164   11.7759 C   0  0  0  0  0  0  0  0  0  0  0  0
   15.5644   11.4223   12.5990 O   0  0  0  0  0  0  0  0  0  0  0  0
   16.6244   10.8262   10.6775 N   0  0  0  0  0  0  0  0  0  0  0  0
   16.3622    9.4430   10.8587 C   0  0  0  0  0  0  0  0  0  0  0  0
   15.1746    9.0053   10.1390 C   0  0  0  0  0  0  0  0  0  0  0  0
   14.4431    9.6299    9.1633 C   0  0  0  0  0  0  0  0  0  0  0  0
   13.4391    8.7863    8.6513 C   0  0  0  0  0  0  0  0  0  0  0  0
   13.4737    7.5559    9.2565 C   0  0  0  0  0  0  0  0  0  0  0  0
   14.5963    7.4543   10.5077 S   0  0  0  0  0  0  0  0  0  0  0  0
   18.8764   12.6042   11.6321 C   0  0  0  0  0  0  0  0  0  0  0  0
   19.7382   11.7169   10.9368 C   0  0  0  0  0  0  0  0  0  0  0  0
   21.1306   11.8561   11.0481 C   0  0  0  0  0  0  0  0  0  0  0  0
   21.6673   12.8660   11.8361 C   0  0  0  0  0  0  0  0  0  0  0  0
   23.3601   12.9476   12.1259 Cl  0  0  0  0  0  0  0  0  0  0  0  0
   20.8488   13.8123   12.4471 C   0  0  0  0  0  0  0  0  0  0  0  0
   19.4603   13.6633   12.3338 C   0  0  0  0  0  0  0  0  0  0  0  0
  1  2  1  0
  2  3  1  0
  3  4  2  0
  4  5  1  0
  5  6  2  0
  5  7  1  0
  7  8  1  0
  8  9  1  0
  9 10  2  0
 10 11  1  0
 11 12  2  0
 12 13  1  0
  4 14  1  0
 14 15  2  0
 15 16  1  0
 16 17  2  0
 17 18  1  0
 17 19  1  0
 19 20  2  0
 20  2  1  0
 13  9  1  0
 20 14  1  0
M  END
>  <HIPPO ID>  (68) 
28815

>  <ref_url>  (68) 
None

>  <ref_pdb>  (68) 
c0270a

>  <inchikey>  (68) 
XHOFNXFGDGKUJA-UHFFFAOYSA-N

>  <original SMILES>  (68) 
Cn1cc(C(=O)NCc2cccs2)c2ccc(Cl)cc21

>  <generation_date>  (68) 
None

>  <tags>  (68) 
[]

>  <ref_mols>  (68) 
c0270a,c0894a

>  <alias>  (68) 
None

>  <original ID>  (68) 
XHOFNXFGDGKUJA-UHFFFAOYSA-N

>  <exports>  (68) 
['/opt/xchem-fragalysis-2/maxwin/CHIKV_HIPPO/hippo_prod/CHIKV_prod11b_recipes/Recipe_1GFD8FK_poses.sdf', '/opt/xchem-fragalysis-2/maxwin/CHIKV_HIPPO/hippo_prod/CHIKV_prod11c_recipes/Recipe_1GJWBFH_poses.sdf', '/opt/xchem-fragalysis-2/maxwin/CHIKV_HIPPO/hippo_prod/CHIKV_prod11c_recipes/Recipe_1GJXK8G_poses.sdf', '/opt/xchem-fragalysis-2/maxwin/CHIKV_HIPPO/hippo_prod/CHIKV_prod11c_recipes/Recipe_1GJXW46_poses.sdf']

>  <method>  (68) 
None

>  <submitter_email>  (68) 
None

>  <submitter_name>  (68) 
None

$$$$
YWBTUYVJZBVMFW-UHFFFAOYSA-N
     RDKit          3D

 21 22  0  0  0  0  0  0  0  0999 V2000
   14.5810    7.9871   10.8624 C   0  0  0  0  0  0  0  0  0  0  0  0
   15.2289    8.9721   11.8306 C   0  0  0  0  0  0  0  0  0  0  0  0
   15.7551   10.2745   11.3777 N   0  0  0  0  0  0  0  0  0  0  0  0
   16.3962   11.0237   12.3780 C   0  0  0  0  0  0  0  0  0  0  0  0
   16.2917   10.6573   13.5502 O   0  0  0  0  0  0  0  0  0  0  0  0
   17.1867   12.2429   12.1335 C   0  0  0  0  0  0  0  0  0  0  0  0
   16.8065   13.4522   12.6788 C   0  0  0  0  0  0  0  0  0  0  0  0
   15.3037   13.9340   13.3191 Cl  0  0  0  0  0  0  0  0  0  0  0  0
   17.8795   14.2806   12.7986 N   0  0  0  0  0  0  0  0  0  0  0  0
   17.9091   15.5900   13.4170 C   0  0  0  0  0  0  0  0  0  0  0  0
   18.9983   13.6337   12.3253 C   0  0  0  0  0  0  0  0  0  0  0  0
   20.3550   13.9866   12.4369 C   0  0  0  0  0  0  0  0  0  0  0  0
   21.3174   13.1644   11.8641 C   0  0  0  0  0  0  0  0  0  0  0  0
   22.9733   13.5414   12.1779 Cl  0  0  0  0  0  0  0  0  0  0  0  0
   20.9169   12.0751   11.1072 C   0  0  0  0  0  0  0  0  0  0  0  0
   22.0438   11.1617   10.1941 Cl  0  0  0  0  0  0  0  0  0  0  0  0
   19.5652   11.6850   11.0684 C   0  0  0  0  0  0  0  0  0  0  0  0
   18.5669   12.4407   11.7251 C   0  0  0  0  0  0  0  0  0  0  0  0
   15.9928   10.5104    9.9798 C   0  0  0  0  0  0  0  0  0  0  0  0
   16.9962    9.5507    9.4784 C   0  0  0  0  0  0  0  0  0  0  0  0
   14.7709   10.4557    9.1067 C   0  0  0  0  0  0  0  0  0  0  0  0
  1  2  1  0
  2  3  1  0
  3  4  1  0
  4  5  2  0
  4  6  1  0
  6  7  2  0
  7  8  1  0
  7  9  1  0
  9 10  1  0
  9 11  1  0
 11 12  2  0
 12 13  1  0
 13 14  1  0
 13 15  2  0
 15 16  1  0
 15 17  1  0
 17 18  2  0
  3 19  1  0
 19 20  1  0
 19 21  1  0
 18  6  1  0
 18 11  1  0
M  END
>  <HIPPO ID>  (69) 
29166

>  <ref_url>  (69) 
None

>  <ref_pdb>  (69) 
c0270a

>  <inchikey>  (69) 
YWBTUYVJZBVMFW-UHFFFAOYSA-N

>  <original SMILES>  (69) 
CCN(C(=O)c1c(Cl)n(C)c2cc(Cl)c(Cl)cc12)C(C)C

>  <generation_date>  (69) 
None

>  <tags>  (69) 
[]

>  <ref_mols>  (69) 
c0270a,c0894a

>  <alias>  (69) 
None

>  <original ID>  (69) 
YWBTUYVJZBVMFW-UHFFFAOYSA-N

>  <exports>  (69) 
['/opt/xchem-fragalysis-2/maxwin/CHIKV_HIPPO/hippo_prod/CHIKV_prod11c_recipes/Recipe_1GJWBFH_poses.sdf', '/opt/xchem-fragalysis-2/maxwin/CHIKV_HIPPO/hippo_prod/CHIKV_prod11c_recipes/Recipe_1GJXK8G_poses.sdf', '/opt/xchem-fragalysis-2/maxwin/CHIKV_HIPPO/hippo_prod/CHIKV_prod11c_recipes/Recipe_1GJXW46_poses.sdf']

>  <method>  (69) 
None

>  <submitter_email>  (69) 
None

>  <submitter_name>  (69) 
None

$$$$
ZMDCDCNRNFPSKS-VIFPVBQESA-N
     RDKit          3D

 21 23  0  0  0  0  0  0  0  0999 V2000
   13.8941   10.3808    9.6726 C   0  0  0  0  0  0  0  0  0  0  0  0
   14.7890    9.8377   10.7990 C   0  0  1  0  0  0  0  0  0  0  0  0
   15.2855    8.5764   10.0829 C   0  0  0  0  0  0  0  0  0  0  0  0
   14.6771    7.5182   10.0240 O   0  0  0  0  0  0  0  0  0  0  0  0
   16.3181    8.8741    9.2381 N   0  0  0  0  0  0  0  0  0  0  0  0
   17.3063    9.7799    9.7226 C   0  0  0  0  0  0  0  0  0  0  0  0
   16.6672   11.0744    9.9948 C   0  0  0  0  0  0  0  0  0  0  0  0
   15.8099   10.8798   11.0898 N   0  0  0  0  0  0  0  0  0  0  0  0
   16.2339   11.2755   12.3378 C   0  0  0  0  0  0  0  0  0  0  0  0
   15.7268   10.8091   13.3531 O   0  0  0  0  0  0  0  0  0  0  0  0
   17.2408   12.3732   12.4220 C   0  0  0  0  0  0  0  0  0  0  0  0
   16.9273   13.5570   13.0695 C   0  0  0  0  0  0  0  0  0  0  0  0
   18.0343   14.3538   13.1067 N   0  0  0  0  0  0  0  0  0  0  0  0
   18.0821   15.6724   13.6968 C   0  0  0  0  0  0  0  0  0  0  0  0
   19.1167   13.7069   12.5631 C   0  0  0  0  0  0  0  0  0  0  0  0
   20.4827   14.0460   12.5746 C   0  0  0  0  0  0  0  0  0  0  0  0
   21.3970   13.1812   11.9762 C   0  0  0  0  0  0  0  0  0  0  0  0
   23.0797   13.4708   12.1777 Cl  0  0  0  0  0  0  0  0  0  0  0  0
   20.9626   12.0757   11.2697 C   0  0  0  0  0  0  0  0  0  0  0  0
   19.5992   11.7511   11.2700 C   0  0  0  0  0  0  0  0  0  0  0  0
   18.6383   12.5259   11.9897 C   0  0  0  0  0  0  0  0  0  0  0  0
  2  1  1  6
  2  3  1  0
  3  4  2  0
  3  5  1  0
  5  6  1  0
  6  7  1  0
  7  8  1  0
  8  9  1  0
  9 10  2  0
  9 11  1  0
 11 12  2  0
 12 13  1  0
 13 14  1  0
 13 15  1  0
 15 16  2  0
 16 17  1  0
 17 18  1  0
 17 19  2  0
 19 20  1  0
 20 21  2  0
  8  2  1  0
 21 11  1  0
 21 15  1  0
M  END
>  <HIPPO ID>  (70) 
29174

>  <ref_url>  (70) 
None

>  <ref_pdb>  (70) 
c0270a

>  <inchikey>  (70) 
ZMDCDCNRNFPSKS-VIFPVBQESA-N

>  <original SMILES>  (70) 
C[C@H]1C(=O)NCCN1C(=O)c1cn(C)c2cc(Cl)ccc12

>  <generation_date>  (70) 
None

>  <tags>  (70) 
[]

>  <ref_mols>  (70) 
c0270a,c0894a

>  <alias>  (70) 
None

>  <original ID>  (70) 
ZMDCDCNRNFPSKS-VIFPVBQESA-N

>  <exports>  (70) 
['/opt/xchem-fragalysis-2/maxwin/CHIKV_HIPPO/hippo_prod/CHIKV_prod11c_recipes/Recipe_1GJWBFH_poses.sdf', '/opt/xchem-fragalysis-2/maxwin/CHIKV_HIPPO/hippo_prod/CHIKV_prod11c_recipes/Recipe_1GJXK8G_poses.sdf', '/opt/xchem-fragalysis-2/maxwin/CHIKV_HIPPO/hippo_prod/CHIKV_prod11c_recipes/Recipe_1GJXW46_poses.sdf']

>  <method>  (70) 
None

>  <submitter_email>  (70) 
None

>  <submitter_name>  (70) 
None

$$$$
ZMDCDCNRNFPSKS-SECBINFHSA-N
     RDKit          3D

 21 23  0  0  0  0  0  0  0  0999 V2000
   15.3793    8.4390   12.9344 C   0  0  0  0  0  0  0  0  0  0  0  0
   15.2246    9.1302   11.5954 C   0  0  2  0  0  0  0  0  0  0  0  0
   15.0816    8.0574   10.5039 C   0  0  0  0  0  0  0  0  0  0  0  0
   14.7643    6.8876   10.6842 O   0  0  0  0  0  0  0  0  0  0  0  0
   15.1977    8.5079    9.2350 N   0  0  0  0  0  0  0  0  0  0  0  0
   15.9578    9.6817    8.9399 C   0  0  0  0  0  0  0  0  0  0  0  0
   16.8815   10.1230   10.0642 C   0  0  0  0  0  0  0  0  0  0  0  0
   16.2467   10.1634   11.3472 N   0  0  0  0  0  0  0  0  0  0  0  0
   16.2011   11.3258   12.1010 C   0  0  0  0  0  0  0  0  0  0  0  0
   15.2492   11.4830   12.8695 O   0  0  0  0  0  0  0  0  0  0  0  0
   17.2782   12.3444   12.0808 C   0  0  0  0  0  0  0  0  0  0  0  0
   17.0249   13.5666   12.6947 C   0  0  0  0  0  0  0  0  0  0  0  0
   18.1813   14.2684   12.8108 N   0  0  0  0  0  0  0  0  0  0  0  0
   18.3001   15.5651   13.4402 C   0  0  0  0  0  0  0  0  0  0  0  0
   19.2254   13.5407   12.3025 C   0  0  0  0  0  0  0  0  0  0  0  0
   20.6069   13.7854   12.3819 C   0  0  0  0  0  0  0  0  0  0  0  0
   21.4827   12.8725   11.8081 C   0  0  0  0  0  0  0  0  0  0  0  0
   23.1701   13.0686   12.0721 Cl  0  0  0  0  0  0  0  0  0  0  0  0
   20.9987   11.8076   11.0696 C   0  0  0  0  0  0  0  0  0  0  0  0
   19.6137   11.5735   11.0010 C   0  0  0  0  0  0  0  0  0  0  0  0
   18.6817   12.4023   11.6853 C   0  0  0  0  0  0  0  0  0  0  0  0
  2  1  1  1
  2  3  1  0
  3  4  2  0
  3  5  1  0
  5  6  1  0
  6  7  1  0
  7  8  1  0
  8  9  1  0
  9 10  2  0
  9 11  1  0
 11 12  2  0
 12 13  1  0
 13 14  1  0
 13 15  1  0
 15 16  2  0
 16 17  1  0
 17 18  1  0
 17 19  2  0
 19 20  1  0
 20 21  2  0
  8  2  1  0
 21 11  1  0
 21 15  1  0
M  END
>  <HIPPO ID>  (71) 
29175

>  <ref_url>  (71) 
None

>  <ref_pdb>  (71) 
c0270a

>  <inchikey>  (71) 
ZMDCDCNRNFPSKS-SECBINFHSA-N

>  <original SMILES>  (71) 
C[C@@H]1C(=O)NCCN1C(=O)c1cn(C)c2cc(Cl)ccc12

>  <generation_date>  (71) 
None

>  <tags>  (71) 
[]

>  <ref_mols>  (71) 
c0270a,c0894a

>  <alias>  (71) 
None

>  <original ID>  (71) 
ZMDCDCNRNFPSKS-SECBINFHSA-N

>  <exports>  (71) 
['/opt/xchem-fragalysis-2/maxwin/CHIKV_HIPPO/hippo_prod/CHIKV_prod11c_recipes/Recipe_1GJWBFH_poses.sdf', '/opt/xchem-fragalysis-2/maxwin/CHIKV_HIPPO/hippo_prod/CHIKV_prod11c_recipes/Recipe_1GJXK8G_poses.sdf', '/opt/xchem-fragalysis-2/maxwin/CHIKV_HIPPO/hippo_prod/CHIKV_prod11c_recipes/Recipe_1GJXW46_poses.sdf']

>  <method>  (71) 
None

>  <submitter_email>  (71) 
None

>  <submitter_name>  (71) 
None

$$$$
WRUDPEWAJIYFOJ-UHFFFAOYSA-N
     RDKit          3D

 21 22  0  0  0  0  0  0  0  0999 V2000
   13.6378    9.1106    9.2027 C   0  0  0  0  0  0  0  0  0  0  0  0
   14.3535    8.2922   10.2792 C   0  0  0  0  0  0  0  0  0  0  0  0
   15.1607    9.0662   11.3494 C   0  0  0  0  0  0  0  0  0  0  0  0
   15.9969   10.2397   11.0265 N   0  0  0  0  0  0  0  0  0  0  0  0
   16.9607   10.1210    9.9774 C   0  0  0  0  0  0  0  0  0  0  0  0
   16.4086    9.5831    8.7033 C   0  0  0  0  0  0  0  0  0  0  0  0
   16.2909   11.0900   12.1171 C   0  0  0  0  0  0  0  0  0  0  0  0
   15.7352   10.8730   13.1969 O   0  0  0  0  0  0  0  0  0  0  0  0
   17.2349   12.2373   12.0625 C   0  0  0  0  0  0  0  0  0  0  0  0
   16.8874   13.4380   12.6586 C   0  0  0  0  0  0  0  0  0  0  0  0
   15.3769   13.9865   13.2372 Cl  0  0  0  0  0  0  0  0  0  0  0  0
   17.9780   14.2281   12.8380 N   0  0  0  0  0  0  0  0  0  0  0  0
   18.0132   15.5278   13.4776 C   0  0  0  0  0  0  0  0  0  0  0  0
   19.0873   13.5680   12.3671 C   0  0  0  0  0  0  0  0  0  0  0  0
   20.4471   13.8893   12.5210 C   0  0  0  0  0  0  0  0  0  0  0  0
   21.4055   13.0924   11.9129 C   0  0  0  0  0  0  0  0  0  0  0  0
   23.0609   13.4462   12.2510 Cl  0  0  0  0  0  0  0  0  0  0  0  0
   20.9988   12.0578   11.0872 C   0  0  0  0  0  0  0  0  0  0  0  0
   22.1250   11.1995   10.1226 Cl  0  0  0  0  0  0  0  0  0  0  0  0
   19.6416   11.6886   11.0033 C   0  0  0  0  0  0  0  0  0  0  0  0
   18.6390   12.4155   11.6975 C   0  0  0  0  0  0  0  0  0  0  0  0
  1  2  1  0
  2  3  1  0
  3  4  1  0
  4  5  1  0
  5  6  1  0
  4  7  1  0
  7  8  2  0
  7  9  1  0
  9 10  2  0
 10 11  1  0
 10 12  1  0
 12 13  1  0
 12 14  1  0
 14 15  2  0
 15 16  1  0
 16 17  1  0
 16 18  2  0
 18 19  1  0
 18 20  1  0
 20 21  2  0
 21  9  1  0
 21 14  1  0
M  END
>  <HIPPO ID>  (72) 
29202

>  <ref_url>  (72) 
None

>  <ref_pdb>  (72) 
c0270a

>  <inchikey>  (72) 
WRUDPEWAJIYFOJ-UHFFFAOYSA-N

>  <original SMILES>  (72) 
CCCN(CC)C(=O)c1c(Cl)n(C)c2cc(Cl)c(Cl)cc12

>  <generation_date>  (72) 
None

>  <tags>  (72) 
[]

>  <ref_mols>  (72) 
c0270a,c0894a

>  <alias>  (72) 
None

>  <original ID>  (72) 
WRUDPEWAJIYFOJ-UHFFFAOYSA-N

>  <exports>  (72) 
['/opt/xchem-fragalysis-2/maxwin/CHIKV_HIPPO/hippo_prod/CHIKV_prod11c_recipes/Recipe_1GJXW46_poses.sdf']

>  <method>  (72) 
None

>  <submitter_email>  (72) 
None

>  <submitter_name>  (72) 
None

$$$$
ZDHVWUGJSKRPOS-UHFFFAOYSA-N
     RDKit          3D

 21 22  0  0  0  0  0  0  0  0999 V2000
   15.9666    8.8755   12.1488 C   0  0  0  0  0  0  0  0  0  0  0  0
   16.6342   10.1141   11.7213 N   0  0  0  0  0  0  0  0  0  0  0  0
   16.4963   10.4037   10.3300 C   0  0  0  0  0  0  0  0  0  0  0  0
   15.0361   10.7236   10.1008 C   0  0  0  0  0  0  0  0  0  0  0  0
   14.6203   10.0578    8.8458 C   0  0  0  0  0  0  0  0  0  0  0  0
   15.1532   10.8840    7.8612 O   0  0  0  0  0  0  0  0  0  0  0  0
   16.5092   11.2095   12.5728 C   0  0  0  0  0  0  0  0  0  0  0  0
   15.7691   11.1321   13.5511 O   0  0  0  0  0  0  0  0  0  0  0  0
   17.3494   12.3977   12.3564 C   0  0  0  0  0  0  0  0  0  0  0  0
   17.0154   13.6413   12.8485 C   0  0  0  0  0  0  0  0  0  0  0  0
   15.5336   14.2372   13.4442 Cl  0  0  0  0  0  0  0  0  0  0  0  0
   18.1211   14.4325   12.9049 N   0  0  0  0  0  0  0  0  0  0  0  0
   18.1988   15.7618   13.4721 C   0  0  0  0  0  0  0  0  0  0  0  0
   19.1956   13.7333   12.4051 C   0  0  0  0  0  0  0  0  0  0  0  0
   20.5662   14.0254   12.4524 C   0  0  0  0  0  0  0  0  0  0  0  0
   21.4575   13.1519   11.8420 C   0  0  0  0  0  0  0  0  0  0  0  0
   23.1402   13.4484   12.0911 Cl  0  0  0  0  0  0  0  0  0  0  0  0
   20.9733   12.0848   11.0963 C   0  0  0  0  0  0  0  0  0  0  0  0
   22.0222   11.1266   10.1420 Cl  0  0  0  0  0  0  0  0  0  0  0  0
   19.6057   11.7567   11.1053 C   0  0  0  0  0  0  0  0  0  0  0  0
   18.6935   12.5539   11.8381 C   0  0  0  0  0  0  0  0  0  0  0  0
  1  2  1  0
  2  3  1  0
  3  4  1  0
  4  5  1  0
  5  6  1  0
  2  7  1  0
  7  8  2  0
  7  9  1  0
  9 10  2  0
 10 11  1  0
 10 12  1  0
 12 13  1  0
 12 14  1  0
 14 15  2  0
 15 16  1  0
 16 17  1  0
 16 18  2  0
 18 19  1  0
 18 20  1  0
 20 21  2  0
 21  9  1  0
 21 14  1  0
M  END
>  <HIPPO ID>  (73) 
29308

>  <ref_url>  (73) 
None

>  <ref_pdb>  (73) 
c0270a

>  <inchikey>  (73) 
ZDHVWUGJSKRPOS-UHFFFAOYSA-N

>  <original SMILES>  (73) 
CN(CCCO)C(=O)c1c(Cl)n(C)c2cc(Cl)c(Cl)cc12

>  <generation_date>  (73) 
None

>  <tags>  (73) 
[]

>  <ref_mols>  (73) 
c0270a,c0894a

>  <alias>  (73) 
None

>  <original ID>  (73) 
ZDHVWUGJSKRPOS-UHFFFAOYSA-N

>  <exports>  (73) 
['/opt/xchem-fragalysis-2/maxwin/CHIKV_HIPPO/hippo_prod/CHIKV_prod11c_recipes/Recipe_1GJWBFH_poses.sdf', '/opt/xchem-fragalysis-2/maxwin/CHIKV_HIPPO/hippo_prod/CHIKV_prod11c_recipes/Recipe_1GJXK8G_poses.sdf', '/opt/xchem-fragalysis-2/maxwin/CHIKV_HIPPO/hippo_prod/CHIKV_prod11c_recipes/Recipe_1GJXW46_poses.sdf']

>  <method>  (73) 
None

>  <submitter_email>  (73) 
None

>  <submitter_name>  (73) 
None

$$$$
VZMAPPMXABTTMI-UHFFFAOYSA-N
     RDKit          3D

 21 22  0  0  0  0  0  0  0  0999 V2000
   18.4790   15.7279   13.7318 C   0  0  0  0  0  0  0  0  0  0  0  0
   18.3061   14.4797   13.0207 N   0  0  0  0  0  0  0  0  0  0  0  0
   17.1241   13.8638   12.7599 C   0  0  0  0  0  0  0  0  0  0  0  0
   15.6985   14.4959   13.4584 Cl  0  0  0  0  0  0  0  0  0  0  0  0
   17.3277   12.7499   11.9722 C   0  0  0  0  0  0  0  0  0  0  0  0
   16.2410   11.8438   11.6294 C   0  0  0  0  0  0  0  0  0  0  0  0
   15.0580   12.1631   11.6789 O   0  0  0  0  0  0  0  0  0  0  0  0
   16.5885   10.5339   11.4174 N   0  0  0  0  0  0  0  0  0  0  0  0
   15.7234    9.5861   12.0663 C   0  0  0  0  0  0  0  0  0  0  0  0
   15.7522    8.2021   11.4948 C   0  0  0  0  0  0  0  0  0  0  0  0
   14.9153    8.0929   10.2571 C   0  0  0  0  0  0  0  0  0  0  0  0
   14.5731    6.3737   10.0940 Cl  0  0  0  0  0  0  0  0  0  0  0  0
   15.6926    8.9123    8.9290 Cl  0  0  0  0  0  0  0  0  0  0  0  0
   18.7477   12.7148   11.7170 C   0  0  0  0  0  0  0  0  0  0  0  0
   19.6227   11.9095   10.9513 C   0  0  0  0  0  0  0  0  0  0  0  0
   21.0158   12.0752   11.0837 C   0  0  0  0  0  0  0  0  0  0  0  0
   22.0323   11.1354   10.0793 Cl  0  0  0  0  0  0  0  0  0  0  0  0
   21.5538   12.9829   11.9894 C   0  0  0  0  0  0  0  0  0  0  0  0
   23.2425   13.1133   12.3253 Cl  0  0  0  0  0  0  0  0  0  0  0  0
   20.7132   13.8435   12.6798 C   0  0  0  0  0  0  0  0  0  0  0  0
   19.3290   13.7204   12.5026 C   0  0  0  0  0  0  0  0  0  0  0  0
  1  2  1  0
  2  3  1  0
  3  4  1  0
  3  5  2  0
  5  6  1  0
  6  7  2  0
  6  8  1  0
  8  9  1  0
  9 10  1  0
 10 11  1  0
 11 12  1  0
 11 13  1  0
  5 14  1  0
 14 15  2  0
 15 16  1  0
 16 17  1  0
 16 18  2  0
 18 19  1  0
 18 20  1  0
 20 21  2  0
 21  2  1  0
 21 14  1  0
M  END
>  <HIPPO ID>  (74) 
29373

>  <ref_url>  (74) 
None

>  <ref_pdb>  (74) 
c0270a

>  <inchikey>  (74) 
VZMAPPMXABTTMI-UHFFFAOYSA-N

>  <original SMILES>  (74) 
Cn1c(Cl)c(C(=O)NCCC(Cl)Cl)c2cc(Cl)c(Cl)cc21

>  <generation_date>  (74) 
None

>  <tags>  (74) 
[]

>  <ref_mols>  (74) 
c0270a,c0894a

>  <alias>  (74) 
None

>  <original ID>  (74) 
VZMAPPMXABTTMI-UHFFFAOYSA-N

>  <exports>  (74) 
['/opt/xchem-fragalysis-2/maxwin/CHIKV_HIPPO/hippo_prod/CHIKV_prod11c_recipes/Recipe_1GJWBFH_poses.sdf', '/opt/xchem-fragalysis-2/maxwin/CHIKV_HIPPO/hippo_prod/CHIKV_prod11c_recipes/Recipe_1GJXK8G_poses.sdf', '/opt/xchem-fragalysis-2/maxwin/CHIKV_HIPPO/hippo_prod/CHIKV_prod11c_recipes/Recipe_1GJXW46_poses.sdf']

>  <method>  (74) 
None

>  <submitter_email>  (74) 
None

>  <submitter_name>  (74) 
None

$$$$
RHDPETMHGQCXET-UHFFFAOYSA-N
     RDKit          3D

 21 22  0  0  0  0  0  0  0  0999 V2000
   14.6699    9.7497    9.3442 C   0  0  0  0  0  0  0  0  0  0  0  0
   15.6999    9.2218   10.2120 N   0  0  0  0  0  0  0  0  0  0  0  0
   16.6553   10.2252   10.5712 N   0  0  0  0  0  0  0  0  0  0  0  0
   16.3321   11.1078   11.5931 C   0  0  0  0  0  0  0  0  0  0  0  0
   15.2942   10.9802   12.2414 O   0  0  0  0  0  0  0  0  0  0  0  0
   17.2723   12.2054   11.8659 C   0  0  0  0  0  0  0  0  0  0  0  0
   16.9182   13.3351   12.5830 C   0  0  0  0  0  0  0  0  0  0  0  0
   15.4051   13.8655   13.1709 Cl  0  0  0  0  0  0  0  0  0  0  0  0
   18.0099   14.1050   12.8408 N   0  0  0  0  0  0  0  0  0  0  0  0
   18.0256   15.3751   13.5398 C   0  0  0  0  0  0  0  0  0  0  0  0
   19.1253   13.4709   12.3488 C   0  0  0  0  0  0  0  0  0  0  0  0
   20.4817   13.7693   12.5458 C   0  0  0  0  0  0  0  0  0  0  0  0
   21.4375   12.9986   11.9025 C   0  0  0  0  0  0  0  0  0  0  0  0
   23.0914   13.3306   12.2738 Cl  0  0  0  0  0  0  0  0  0  0  0  0
   21.0321   12.0103   11.0150 C   0  0  0  0  0  0  0  0  0  0  0  0
   22.1747   11.1988   10.0343 Cl  0  0  0  0  0  0  0  0  0  0  0  0
   19.6727   11.6625   10.8724 C   0  0  0  0  0  0  0  0  0  0  0  0
   18.6837   12.3751   11.5891 C   0  0  0  0  0  0  0  0  0  0  0  0
   15.5333    8.1295   11.0439 C   0  0  0  0  0  0  0  0  0  0  0  0
   14.5480    7.2594   10.6845 N   0  0  0  0  0  0  0  0  0  0  0  0
   16.2121    7.8630   12.0304 O   0  0  0  0  0  0  0  0  0  0  0  0
  1  2  1  0
  2  3  1  0
  3  4  1  0
  4  5  2  0
  4  6  1  0
  6  7  2  0
  7  8  1  0
  7  9  1  0
  9 10  1  0
  9 11  1  0
 11 12  2  0
 12 13  1  0
 13 14  1  0
 13 15  2  0
 15 16  1  0
 15 17  1  0
 17 18  2  0
  2 19  1  0
 19 20  1  0
 19 21  2  0
 18  6  1  0
 18 11  1  0
M  END
>  <HIPPO ID>  (75) 
29383

>  <ref_url>  (75) 
None

>  <ref_pdb>  (75) 
c0270a

>  <inchikey>  (75) 
RHDPETMHGQCXET-UHFFFAOYSA-N

>  <original SMILES>  (75) 
CN(NC(=O)c1c(Cl)n(C)c2cc(Cl)c(Cl)cc12)C(N)=O

>  <generation_date>  (75) 
None

>  <tags>  (75) 
[]

>  <ref_mols>  (75) 
c0270a,c0894a

>  <alias>  (75) 
None

>  <original ID>  (75) 
RHDPETMHGQCXET-UHFFFAOYSA-N

>  <exports>  (75) 
['/opt/xchem-fragalysis-2/maxwin/CHIKV_HIPPO/hippo_prod/CHIKV_prod11c_recipes/Recipe_1GJWBFH_poses.sdf', '/opt/xchem-fragalysis-2/maxwin/CHIKV_HIPPO/hippo_prod/CHIKV_prod11c_recipes/Recipe_1GJXK8G_poses.sdf', '/opt/xchem-fragalysis-2/maxwin/CHIKV_HIPPO/hippo_prod/CHIKV_prod11c_recipes/Recipe_1GJXW46_poses.sdf']

>  <method>  (75) 
None

>  <submitter_email>  (75) 
None

>  <submitter_name>  (75) 
None

$$$$
ZFINTGCGLFIPNR-UHFFFAOYSA-N
     RDKit          3D

 22 23  0  0  0  0  0  0  0  0999 V2000
   15.7600    7.7678   13.3489 C   0  0  0  0  0  0  0  0  0  0  0  0
   15.6533    8.1124   11.8681 C   0  0  0  0  0  0  0  0  0  0  0  0
   14.7859    7.0675   11.1588 C   0  0  0  0  0  0  0  0  0  0  0  0
   15.1008    9.5398   11.6657 C   0  0  0  0  0  0  0  0  0  0  0  0
   16.1057   10.6151   11.5920 N   0  0  0  0  0  0  0  0  0  0  0  0
   16.4903   11.0386   10.2911 C   0  0  0  0  0  0  0  0  0  0  0  0
   17.2332    9.9514    9.6704 C   0  0  0  0  0  0  0  0  0  0  0  0
   16.6915    8.9328    9.2844 O   0  0  0  0  0  0  0  0  0  0  0  0
   18.5495   10.2146    9.6263 O   0  0  0  0  0  0  0  0  0  0  0  0
   16.5057   11.3372   12.6960 C   0  0  0  0  0  0  0  0  0  0  0  0
   16.0702   11.0480   13.8077 O   0  0  0  0  0  0  0  0  0  0  0  0
   17.3951   12.5169   12.5506 C   0  0  0  0  0  0  0  0  0  0  0  0
   17.0126   13.7482   13.0569 C   0  0  0  0  0  0  0  0  0  0  0  0
   18.0836   14.5930   13.0235 N   0  0  0  0  0  0  0  0  0  0  0  0
   18.0822   15.9419   13.5387 C   0  0  0  0  0  0  0  0  0  0  0  0
   19.1923   13.9533   12.5284 C   0  0  0  0  0  0  0  0  0  0  0  0
   20.5459   14.3452   12.5057 C   0  0  0  0  0  0  0  0  0  0  0  0
   21.4991   13.4521   12.0144 C   0  0  0  0  0  0  0  0  0  0  0  0
   23.1707   13.7889   12.2289 Cl  0  0  0  0  0  0  0  0  0  0  0  0
   21.1168   12.2600   11.4400 C   0  0  0  0  0  0  0  0  0  0  0  0
   19.7706   11.8924   11.4888 C   0  0  0  0  0  0  0  0  0  0  0  0
   18.7670   12.7004   12.0827 C   0  0  0  0  0  0  0  0  0  0  0  0
  1  2  1  0
  2  3  1  0
  2  4  1  0
  4  5  1  0
  5  6  1  0
  6  7  1  0
  7  8  2  0
  7  9  1  0
  5 10  1  0
 10 11  2  0
 10 12  1  0
 12 13  2  0
 13 14  1  0
 14 15  1  0
 14 16  1  0
 16 17  2  0
 17 18  1  0
 18 19  1  0
 18 20  2  0
 20 21  1  0
 21 22  2  0
 22 12  1  0
 22 16  1  0
M  END
>  <HIPPO ID>  (76) 
29567

>  <ref_url>  (76) 
None

>  <ref_pdb>  (76) 
c0270a

>  <inchikey>  (76) 
ZFINTGCGLFIPNR-UHFFFAOYSA-N

>  <original SMILES>  (76) 
CC(C)CN(CC(=O)O)C(=O)c1cn(C)c2cc(Cl)ccc12

>  <generation_date>  (76) 
None

>  <tags>  (76) 
[]

>  <ref_mols>  (76) 
c0270a,c0894a

>  <alias>  (76) 
None

>  <original ID>  (76) 
ZFINTGCGLFIPNR-UHFFFAOYSA-N

>  <exports>  (76) 
['/opt/xchem-fragalysis-2/maxwin/CHIKV_HIPPO/hippo_prod/CHIKV_prod11c_recipes/Recipe_1GJXK8G_poses.sdf', '/opt/xchem-fragalysis-2/maxwin/CHIKV_HIPPO/hippo_prod/CHIKV_prod11c_recipes/Recipe_1GJXW46_poses.sdf']

>  <method>  (76) 
None

>  <submitter_email>  (76) 
None

>  <submitter_name>  (76) 
None

$$$$
BORNGNQTRSYLJI-UHFFFAOYSA-N
     RDKit          3D

 22 24  0  0  0  0  0  0  0  0999 V2000
   18.3260   15.6211   13.4701 C   0  0  0  0  0  0  0  0  0  0  0  0
   18.3460   14.3760   12.7334 N   0  0  0  0  0  0  0  0  0  0  0  0
   17.2733   13.5780   12.4672 C   0  0  0  0  0  0  0  0  0  0  0  0
   15.7468   13.9505   13.1276 Cl  0  0  0  0  0  0  0  0  0  0  0  0
   17.6946   12.4731   11.7666 C   0  0  0  0  0  0  0  0  0  0  0  0
   16.9974   11.2179   11.7665 C   0  0  0  0  0  0  0  0  0  0  0  0
   17.0717   10.5651   12.7953 O   0  0  0  0  0  0  0  0  0  0  0  0
   16.3235   10.8301   10.6401 N   0  0  0  0  0  0  0  0  0  0  0  0
   15.6246    9.5606   10.5403 C   0  0  0  0  0  0  0  0  0  0  0  0
   15.0370    9.0182   11.8204 C   0  0  0  0  0  0  0  0  0  0  0  0
   14.9194    7.6840   12.1697 C   0  0  0  0  0  0  0  0  0  0  0  0
   14.4007    7.4958   13.4828 C   0  0  0  0  0  0  0  0  0  0  0  0
   14.1310    8.6898   14.1072 C   0  0  0  0  0  0  0  0  0  0  0  0
   14.4174   10.0260   13.0852 S   0  0  0  0  0  0  0  0  0  0  0  0
   19.0809   12.6552   11.5063 C   0  0  0  0  0  0  0  0  0  0  0  0
   20.0538   11.8884   10.8421 C   0  0  0  0  0  0  0  0  0  0  0  0
   21.4017   12.2327   10.9839 C   0  0  0  0  0  0  0  0  0  0  0  0
   22.5294   11.4180    9.9873 Cl  0  0  0  0  0  0  0  0  0  0  0  0
   21.7942   13.2337   11.8680 C   0  0  0  0  0  0  0  0  0  0  0  0
   23.4451   13.5260   12.2775 Cl  0  0  0  0  0  0  0  0  0  0  0  0
   20.8398   14.0380   12.4885 C   0  0  0  0  0  0  0  0  0  0  0  0
   19.4873   13.7584   12.2629 C   0  0  0  0  0  0  0  0  0  0  0  0
  1  2  1  0
  2  3  1  0
  3  4  1  0
  3  5  2  0
  5  6  1  0
  6  7  2  0
  6  8  1  0
  8  9  1  0
  9 10  1  0
 10 11  2  0
 11 12  1  0
 12 13  2  0
 13 14  1  0
  5 15  1  0
 15 16  2  0
 16 17  1  0
 17 18  1  0
 17 19  2  0
 19 20  1  0
 19 21  1  0
 21 22  2  0
 22  2  1  0
 14 10  1  0
 22 15  1  0
M  END
>  <HIPPO ID>  (77) 
29621

>  <ref_url>  (77) 
None

>  <ref_pdb>  (77) 
c0270a

>  <inchikey>  (77) 
BORNGNQTRSYLJI-UHFFFAOYSA-N

>  <original SMILES>  (77) 
Cn1c(Cl)c(C(=O)NCc2cccs2)c2cc(Cl)c(Cl)cc21

>  <generation_date>  (77) 
None

>  <tags>  (77) 
[]

>  <ref_mols>  (77) 
c0270a,c0894a

>  <alias>  (77) 
None

>  <original ID>  (77) 
BORNGNQTRSYLJI-UHFFFAOYSA-N

>  <exports>  (77) 
['/opt/xchem-fragalysis-2/maxwin/CHIKV_HIPPO/hippo_prod/CHIKV_prod11c_recipes/Recipe_1GJWBFH_poses.sdf', '/opt/xchem-fragalysis-2/maxwin/CHIKV_HIPPO/hippo_prod/CHIKV_prod11c_recipes/Recipe_1GJXK8G_poses.sdf', '/opt/xchem-fragalysis-2/maxwin/CHIKV_HIPPO/hippo_prod/CHIKV_prod11c_recipes/Recipe_1GJXW46_poses.sdf']

>  <method>  (77) 
None

>  <submitter_email>  (77) 
None

>  <submitter_name>  (77) 
None

$$$$
KKVUAUMAKLBZSA-SSDOTTSWSA-N
     RDKit          3D

 23 25  0  0  0  0  0  0  0  0999 V2000
   15.8723    7.6895   11.9878 C   0  0  0  0  0  0  0  0  0  0  0  0
   15.2143    8.8815   11.3207 C   0  0  2  0  0  0  0  0  0  0  0  0
   14.5371    8.3091   10.0500 C   0  0  0  0  0  0  0  0  0  0  0  0
   13.9199    7.2494   10.0197 O   0  0  0  0  0  0  0  0  0  0  0  0
   14.5406    9.0872    8.9385 N   0  0  0  0  0  0  0  0  0  0  0  0
   15.6638    9.9435    8.7498 C   0  0  0  0  0  0  0  0  0  0  0  0
   15.9784   10.7771    9.9564 C   0  0  0  0  0  0  0  0  0  0  0  0
   16.1410   10.0323   11.1611 N   0  0  0  0  0  0  0  0  0  0  0  0
   16.4081   10.8172   12.2930 C   0  0  0  0  0  0  0  0  0  0  0  0
   15.9969   10.4702   13.3974 O   0  0  0  0  0  0  0  0  0  0  0  0
   17.1949   12.0648   12.1840 C   0  0  0  0  0  0  0  0  0  0  0  0
   16.8004   13.2543   12.7607 C   0  0  0  0  0  0  0  0  0  0  0  0
   15.2930   13.7230   13.3969 Cl  0  0  0  0  0  0  0  0  0  0  0  0
   17.8552   14.1107   12.8516 N   0  0  0  0  0  0  0  0  0  0  0  0
   17.8644   15.4240   13.4638 C   0  0  0  0  0  0  0  0  0  0  0  0
   18.9724   13.4914   12.3401 C   0  0  0  0  0  0  0  0  0  0  0  0
   20.3236   13.8562   12.4299 C   0  0  0  0  0  0  0  0  0  0  0  0
   21.2732   13.0493   11.8187 C   0  0  0  0  0  0  0  0  0  0  0  0
   22.9330   13.4263   12.1210 Cl  0  0  0  0  0  0  0  0  0  0  0  0
   20.8602   11.9820   11.0283 C   0  0  0  0  0  0  0  0  0  0  0  0
   21.9947   11.1030   10.0974 Cl  0  0  0  0  0  0  0  0  0  0  0  0
   19.5064   11.5903   10.9742 C   0  0  0  0  0  0  0  0  0  0  0  0
   18.5417   12.3131   11.7130 C   0  0  0  0  0  0  0  0  0  0  0  0
  2  1  1  6
  2  3  1  0
  3  4  2  0
  3  5  1  0
  5  6  1  0
  6  7  1  0
  7  8  1  0
  8  9  1  0
  9 10  2  0
  9 11  1  0
 11 12  2  0
 12 13  1  0
 12 14  1  0
 14 15  1  0
 14 16  1  0
 16 17  2  0
 17 18  1  0
 18 19  1  0
 18 20  2  0
 20 21  1  0
 20 22  1  0
 22 23  2  0
  8  2  1  0
 23 11  1  0
 23 16  1  0
M  END
>  <HIPPO ID>  (78) 
29728

>  <ref_url>  (78) 
None

>  <ref_pdb>  (78) 
c0270a

>  <inchikey>  (78) 
KKVUAUMAKLBZSA-SSDOTTSWSA-N

>  <original SMILES>  (78) 
C[C@@H]1C(=O)NCCN1C(=O)c1c(Cl)n(C)c2cc(Cl)c(Cl)cc12

>  <generation_date>  (78) 
None

>  <tags>  (78) 
[]

>  <ref_mols>  (78) 
c0270a,c0894a

>  <alias>  (78) 
None

>  <original ID>  (78) 
KKVUAUMAKLBZSA-SSDOTTSWSA-N

>  <exports>  (78) 
['/opt/xchem-fragalysis-2/maxwin/CHIKV_HIPPO/hippo_prod/CHIKV_prod11c_recipes/Recipe_1GJWBFH_poses.sdf', '/opt/xchem-fragalysis-2/maxwin/CHIKV_HIPPO/hippo_prod/CHIKV_prod11c_recipes/Recipe_1GJXK8G_poses.sdf', '/opt/xchem-fragalysis-2/maxwin/CHIKV_HIPPO/hippo_prod/CHIKV_prod11c_recipes/Recipe_1GJXW46_poses.sdf']

>  <method>  (78) 
None

>  <submitter_email>  (78) 
None

>  <submitter_name>  (78) 
None

$$$$
KKVUAUMAKLBZSA-ZETCQYMHSA-N
     RDKit          3D

 23 25  0  0  0  0  0  0  0  0999 V2000
   14.7358    8.6571   12.7020 C   0  0  0  0  0  0  0  0  0  0  0  0
   15.7478    8.7142   11.5709 C   0  0  1  0  0  0  0  0  0  0  0  0
   15.1947    7.9054   10.3936 C   0  0  0  0  0  0  0  0  0  0  0  0
   14.9902    6.6959   10.4704 O   0  0  0  0  0  0  0  0  0  0  0  0
   14.8506    8.5905    9.2692 N   0  0  0  0  0  0  0  0  0  0  0  0
   15.6397    9.7320    8.9145 C   0  0  0  0  0  0  0  0  0  0  0  0
   15.8887   10.6838   10.0569 C   0  0  0  0  0  0  0  0  0  0  0  0
   16.2807   10.0688   11.2892 N   0  0  0  0  0  0  0  0  0  0  0  0
   16.6425   10.9031   12.3426 C   0  0  0  0  0  0  0  0  0  0  0  0
   16.4791   10.5598   13.5091 O   0  0  0  0  0  0  0  0  0  0  0  0
   17.3174   12.1815   12.1093 C   0  0  0  0  0  0  0  0  0  0  0  0
   16.9054   13.3687   12.6727 C   0  0  0  0  0  0  0  0  0  0  0  0
   15.4011   13.8066   13.3364 Cl  0  0  0  0  0  0  0  0  0  0  0  0
   17.9633   14.2208   12.7779 N   0  0  0  0  0  0  0  0  0  0  0  0
   17.9722   15.5249   13.4079 C   0  0  0  0  0  0  0  0  0  0  0  0
   19.0869   13.5952   12.2828 C   0  0  0  0  0  0  0  0  0  0  0  0
   20.4399   13.9428   12.3961 C   0  0  0  0  0  0  0  0  0  0  0  0
   21.3886   13.1186   11.8029 C   0  0  0  0  0  0  0  0  0  0  0  0
   23.0482   13.4740   12.1291 Cl  0  0  0  0  0  0  0  0  0  0  0  0
   20.9780   12.0496   11.0124 C   0  0  0  0  0  0  0  0  0  0  0  0
   22.1091   11.1620   10.0855 Cl  0  0  0  0  0  0  0  0  0  0  0  0
   19.6251   11.6691   10.9454 C   0  0  0  0  0  0  0  0  0  0  0  0
   18.6615   12.4192   11.6515 C   0  0  0  0  0  0  0  0  0  0  0  0
  2  1  1  1
  2  3  1  0
  3  4  2  0
  3  5  1  0
  5  6  1  0
  6  7  1  0
  7  8  1  0
  8  9  1  0
  9 10  2  0
  9 11  1  0
 11 12  2  0
 12 13  1  0
 12 14  1  0
 14 15  1  0
 14 16  1  0
 16 17  2  0
 17 18  1  0
 18 19  1  0
 18 20  2  0
 20 21  1  0
 20 22  1  0
 22 23  2  0
  8  2  1  0
 23 11  1  0
 23 16  1  0
M  END
>  <HIPPO ID>  (79) 
29729

>  <ref_url>  (79) 
None

>  <ref_pdb>  (79) 
c0270a

>  <inchikey>  (79) 
KKVUAUMAKLBZSA-ZETCQYMHSA-N

>  <original SMILES>  (79) 
C[C@H]1C(=O)NCCN1C(=O)c1c(Cl)n(C)c2cc(Cl)c(Cl)cc12

>  <generation_date>  (79) 
None

>  <tags>  (79) 
[]

>  <ref_mols>  (79) 
c0270a,c0894a

>  <alias>  (79) 
None

>  <original ID>  (79) 
KKVUAUMAKLBZSA-ZETCQYMHSA-N

>  <exports>  (79) 
['/opt/xchem-fragalysis-2/maxwin/CHIKV_HIPPO/hippo_prod/CHIKV_prod11c_recipes/Recipe_1GJWBFH_poses.sdf', '/opt/xchem-fragalysis-2/maxwin/CHIKV_HIPPO/hippo_prod/CHIKV_prod11c_recipes/Recipe_1GJXK8G_poses.sdf', '/opt/xchem-fragalysis-2/maxwin/CHIKV_HIPPO/hippo_prod/CHIKV_prod11c_recipes/Recipe_1GJXW46_poses.sdf']

>  <method>  (79) 
None

>  <submitter_email>  (79) 
None

>  <submitter_name>  (79) 
None

$$$$
HEPICOMVMFXWEE-UHFFFAOYSA-N
     RDKit          3D

 24 25  0  0  0  0  0  0  0  0999 V2000
   14.3459    7.8206    9.9360 C   0  0  0  0  0  0  0  0  0  0  0  0
   14.6195    8.4254   11.3051 C   0  0  0  0  0  0  0  0  0  0  0  0
   14.0881    7.4549   12.3467 C   0  0  0  0  0  0  0  0  0  0  0  0
   16.0870    8.6666   11.5815 C   0  0  0  0  0  0  0  0  0  0  0  0
   16.6074   10.0071   11.3197 N   0  0  0  0  0  0  0  0  0  0  0  0
   16.7518   10.3859    9.9563 C   0  0  0  0  0  0  0  0  0  0  0  0
   15.4454   10.9012    9.4333 C   0  0  0  0  0  0  0  0  0  0  0  0
   14.5703   11.4730   10.0593 O   0  0  0  0  0  0  0  0  0  0  0  0
   15.3534   10.8154    8.1102 O   0  0  0  0  0  0  0  0  0  0  0  0
   16.5143   10.9949   12.2967 C   0  0  0  0  0  0  0  0  0  0  0  0
   15.8595   10.7773   13.3149 O   0  0  0  0  0  0  0  0  0  0  0  0
   17.3285   12.2248   12.1928 C   0  0  0  0  0  0  0  0  0  0  0  0
   16.9405   13.4267   12.7483 C   0  0  0  0  0  0  0  0  0  0  0  0
   15.4269   13.9300   13.3487 Cl  0  0  0  0  0  0  0  0  0  0  0  0
   18.0086   14.2638   12.8635 N   0  0  0  0  0  0  0  0  0  0  0  0
   18.0157   15.5786   13.4715 C   0  0  0  0  0  0  0  0  0  0  0  0
   19.1295   13.6295   12.3780 C   0  0  0  0  0  0  0  0  0  0  0  0
   20.4847   13.9832   12.4802 C   0  0  0  0  0  0  0  0  0  0  0  0
   21.4400   13.1731   11.8770 C   0  0  0  0  0  0  0  0  0  0  0  0
   23.0980   13.5476   12.1776 Cl  0  0  0  0  0  0  0  0  0  0  0  0
   21.0349   12.1001   11.0970 C   0  0  0  0  0  0  0  0  0  0  0  0
   22.1492   11.2225   10.1364 Cl  0  0  0  0  0  0  0  0  0  0  0  0
   19.6873   11.7033   11.0647 C   0  0  0  0  0  0  0  0  0  0  0  0
   18.7012   12.4455   11.7626 C   0  0  0  0  0  0  0  0  0  0  0  0
  1  2  1  0
  2  3  1  0
  2  4  1  0
  4  5  1  0
  5  6  1  0
  6  7  1  0
  7  8  2  0
  7  9  1  0
  5 10  1  0
 10 11  2  0
 10 12  1  0
 12 13  2  0
 13 14  1  0
 13 15  1  0
 15 16  1  0
 15 17  1  0
 17 18  2  0
 18 19  1  0
 19 20  1  0
 19 21  2  0
 21 22  1  0
 21 23  1  0
 23 24  2  0
 24 12  1  0
 24 17  1  0
M  END
>  <HIPPO ID>  (80) 
29838

>  <ref_url>  (80) 
None

>  <ref_pdb>  (80) 
c0270a

>  <inchikey>  (80) 
HEPICOMVMFXWEE-UHFFFAOYSA-N

>  <original SMILES>  (80) 
CC(C)CN(CC(=O)O)C(=O)c1c(Cl)n(C)c2cc(Cl)c(Cl)cc12

>  <generation_date>  (80) 
None

>  <tags>  (80) 
[]

>  <ref_mols>  (80) 
c0270a,c0894a

>  <alias>  (80) 
None

>  <original ID>  (80) 
HEPICOMVMFXWEE-UHFFFAOYSA-N

>  <exports>  (80) 
['/opt/xchem-fragalysis-2/maxwin/CHIKV_HIPPO/hippo_prod/CHIKV_prod11c_recipes/Recipe_1GJXK8G_poses.sdf', '/opt/xchem-fragalysis-2/maxwin/CHIKV_HIPPO/hippo_prod/CHIKV_prod11c_recipes/Recipe_1GJXW46_poses.sdf']

>  <method>  (80) 
None

>  <submitter_email>  (80) 
None

>  <submitter_name>  (80) 
None

$$$$
XMELLLKDAXIHIO-MRVPVSSYSA-N
     RDKit          3D

 17 18  0  0  0  0  0  0  0  0999 V2000
    9.7676    3.3960   12.9446 N   0  0  0  0  0  0  0  0  0  0  0  0
    9.8608    4.4856   13.2998 C   0  0  0  0  0  0  0  0  0  0  0  0
    9.8048    5.6693   14.0199 C   0  0  0  0  0  0  0  0  0  0  0  0
   10.5896    6.7298   13.8357 C   0  0  0  0  0  0  0  0  0  0  0  0
   10.5114    7.8807   14.5758 N   0  0  0  0  0  0  0  0  0  0  0  0
    9.5681    7.9312   15.4583 C   0  0  0  0  0  0  0  0  0  0  0  0
    8.7354    6.8875   15.7593 N   0  0  0  0  0  0  0  0  0  0  0  0
    7.7321    7.0162   16.7735 C   0  0  0  0  0  0  0  0  0  0  0  0
    6.3747    7.3327   16.1499 C   0  0  1  0  0  0  0  0  0  0  0  0
    5.2867    6.6934   16.9709 C   0  0  0  0  0  0  0  0  0  0  0  0
    5.2359    7.4126   18.3118 C   0  0  0  0  0  0  0  0  0  0  0  0
    5.5383    9.0964   17.9029 S   0  0  0  0  0  6  0  0  0  0  0  0
    6.6920    9.5516   18.6385 O   0  0  0  0  0  0  0  0  0  0  0  0
    4.2916    9.8234   17.9171 O   0  0  0  0  0  0  0  0  0  0  0  0
    6.0435    8.8011   16.2330 C   0  0  0  0  0  0  0  0  0  0  0  0
    8.8377    5.6800   15.1188 C   0  0  0  0  0  0  0  0  0  0  0  0
    8.2181    4.6651   15.4378 O   0  0  0  0  0  0  0  0  0  0  0  0
  1  2  3  0
  2  3  1  0
  3  4  2  0
  4  5  1  0
  5  6  2  0
  6  7  1  0
  7  8  1  0
  9  8  1  1
  9 10  1  0
 10 11  1  0
 11 12  1  0
 12 13  2  0
 12 14  2  0
 12 15  1  0
  7 16  1  0
 16 17  2  0
 16  3  1  0
 15  9  1  0
M  END
>  <HIPPO ID>  (81) 
31162

>  <ref_url>  (81) 
None

>  <ref_pdb>  (81) 
c0300a

>  <inchikey>  (81) 
XMELLLKDAXIHIO-MRVPVSSYSA-N

>  <original SMILES>  (81) 
N#Cc1cncn(C[C@H]2CCS(=O)(=O)C2)c1=O

>  <generation_date>  (81) 
None

>  <tags>  (81) 
[]

>  <ref_mols>  (81) 
c0314a,c1182a

>  <alias>  (81) 
None

>  <original ID>  (81) 
XMELLLKDAXIHIO-MRVPVSSYSA-N

>  <exports>  (81) 
['/opt/xchem-fragalysis-2/maxwin/CHIKV_HIPPO/hippo_prod/CHIKV_prod11c_recipes/Recipe_1GJXK8G_poses.sdf', '/opt/xchem-fragalysis-2/maxwin/CHIKV_HIPPO/hippo_prod/CHIKV_prod11c_recipes/Recipe_1GJXW46_poses.sdf']

>  <method>  (81) 
None

>  <submitter_email>  (81) 
None

>  <submitter_name>  (81) 
None

$$$$
XMELLLKDAXIHIO-MRVPVSSYSA-N
     RDKit          3D

 17 18  0  0  0  0  0  0  0  0999 V2000
   10.8005    3.6094   13.1470 N   0  0  0  0  0  0  0  0  0  0  0  0
   10.2636    4.5731   13.4728 C   0  0  0  0  0  0  0  0  0  0  0  0
    9.6046    5.6402   14.0711 C   0  0  0  0  0  0  0  0  0  0  0  0
   10.1270    6.8597   14.1629 C   0  0  0  0  0  0  0  0  0  0  0  0
    9.4970    7.9128   14.7518 N   0  0  0  0  0  0  0  0  0  0  0  0
    8.2846    7.7110   15.1625 C   0  0  0  0  0  0  0  0  0  0  0  0
    7.6407    6.4893   15.1588 N   0  0  0  0  0  0  0  0  0  0  0  0
    6.2088    6.3151   15.3744 C   0  0  0  0  0  0  0  0  0  0  0  0
    5.5660    6.9594   16.5771 C   0  0  1  0  0  0  0  0  0  0  0  0
    6.4128    6.8267   17.8341 C   0  0  0  0  0  0  0  0  0  0  0  0
    5.7278    7.6494   18.8987 C   0  0  0  0  0  0  0  0  0  0  0  0
    5.2999    9.1144   18.0251 S   0  0  0  0  0  6  0  0  0  0  0  0
    4.0353    9.6190   18.4949 O   0  0  0  0  0  0  0  0  0  0  0  0
    6.4743    9.9421   17.9946 O   0  0  0  0  0  0  0  0  0  0  0  0
    5.1402    8.4019   16.4131 C   0  0  0  0  0  0  0  0  0  0  0  0
    8.3046    5.3746   14.6901 C   0  0  0  0  0  0  0  0  0  0  0  0
    7.8787    4.2207   14.7579 O   0  0  0  0  0  0  0  0  0  0  0  0
  1  2  3  0
  2  3  1  0
  3  4  2  0
  4  5  1  0
  5  6  2  0
  6  7  1  0
  7  8  1  0
  9  8  1  6
  9 10  1  0
 10 11  1  0
 11 12  1  0
 12 13  2  0
 12 14  2  0
 12 15  1  0
  7 16  1  0
 16 17  2  0
 16  3  1  0
 15  9  1  0
M  END
>  <HIPPO ID>  (82) 
31163

>  <ref_url>  (82) 
None

>  <ref_pdb>  (82) 
c0300a

>  <inchikey>  (82) 
XMELLLKDAXIHIO-MRVPVSSYSA-N

>  <original SMILES>  (82) 
N#Cc1cncn(C[C@H]2CCS(=O)(=O)C2)c1=O

>  <generation_date>  (82) 
None

>  <tags>  (82) 
[]

>  <ref_mols>  (82) 
c0314a,c1182a

>  <alias>  (82) 
None

>  <original ID>  (82) 
XMELLLKDAXIHIO-MRVPVSSYSA-N

>  <exports>  (82) 
['/opt/xchem-fragalysis-2/maxwin/CHIKV_HIPPO/hippo_prod/CHIKV_prod11c_recipes/Recipe_1GJXK8G_poses.sdf', '/opt/xchem-fragalysis-2/maxwin/CHIKV_HIPPO/hippo_prod/CHIKV_prod11c_recipes/Recipe_1GJXW46_poses.sdf']

>  <method>  (82) 
None

>  <submitter_email>  (82) 
None

>  <submitter_name>  (82) 
None

$$$$
PCGIMQYKMNOYEP-SSDOTTSWSA-N
     RDKit          3D

 18 19  0  0  0  0  0  0  0  0999 V2000
    7.9757    4.1248   15.0725 O   0  0  0  0  0  0  0  0  0  0  0  0
    8.6575    5.0825   14.7134 C   0  0  0  0  0  0  0  0  0  0  0  0
    9.5839    4.8785   13.5830 C   0  0  0  0  0  0  0  0  0  0  0  0
   10.4515    5.8398   13.2640 C   0  0  0  0  0  0  0  0  0  0  0  0
   11.5017    5.6867   12.2027 C   0  0  0  0  0  0  0  0  0  0  0  0
   13.0891    6.1524   12.8703 Cl  0  0  0  0  0  0  0  0  0  0  0  0
   10.4095    7.0274   13.9378 N   0  0  0  0  0  0  0  0  0  0  0  0
    9.5401    7.3337   14.9374 C   0  0  0  0  0  0  0  0  0  0  0  0
    9.5896    8.4447   15.4543 O   0  0  0  0  0  0  0  0  0  0  0  0
    8.6810    6.3274   15.3191 N   0  0  0  0  0  0  0  0  0  0  0  0
    7.7896    6.5967   16.4333 C   0  0  0  0  0  0  0  0  0  0  0  0
    6.4327    7.1283   15.9612 C   0  0  1  0  0  0  0  0  0  0  0  0
    5.3426    6.5914   16.8541 C   0  0  0  0  0  0  0  0  0  0  0  0
    5.4154    7.3165   18.1880 C   0  0  0  0  0  0  0  0  0  0  0  0
    5.7271    8.9852   17.7449 S   0  0  0  0  0  6  0  0  0  0  0  0
    4.4679    9.7026   17.7322 O   0  0  0  0  0  0  0  0  0  0  0  0
    6.8541    9.4619   18.5073 O   0  0  0  0  0  0  0  0  0  0  0  0
    6.2514    8.6312   16.0862 C   0  0  0  0  0  0  0  0  0  0  0  0
  1  2  2  0
  2  3  1  0
  3  4  2  0
  4  5  1  0
  5  6  1  0
  4  7  1  0
  7  8  1  0
  8  9  2  0
  8 10  1  0
 10 11  1  0
 12 11  1  1
 12 13  1  0
 13 14  1  0
 14 15  1  0
 15 16  2  0
 15 17  2  0
 15 18  1  0
 10  2  1  0
 18 12  1  0
M  END
>  <HIPPO ID>  (83) 
31412

>  <ref_url>  (83) 
None

>  <ref_pdb>  (83) 
c0300a

>  <inchikey>  (83) 
PCGIMQYKMNOYEP-SSDOTTSWSA-N

>  <original SMILES>  (83) 
O=c1cc(CCl)[nH]c(=O)n1C[C@H]1CCS(=O)(=O)C1

>  <generation_date>  (83) 
None

>  <tags>  (83) 
[]

>  <ref_mols>  (83) 
c0314a,c1182a

>  <alias>  (83) 
None

>  <original ID>  (83) 
PCGIMQYKMNOYEP-SSDOTTSWSA-N

>  <exports>  (83) 
['/opt/xchem-fragalysis-2/maxwin/CHIKV_HIPPO/hippo_prod/CHIKV_prod11c_recipes/Recipe_1GJWBFH_poses.sdf', '/opt/xchem-fragalysis-2/maxwin/CHIKV_HIPPO/hippo_prod/CHIKV_prod11c_recipes/Recipe_1GJXK8G_poses.sdf', '/opt/xchem-fragalysis-2/maxwin/CHIKV_HIPPO/hippo_prod/CHIKV_prod11c_recipes/Recipe_1GJXW46_poses.sdf']

>  <method>  (83) 
None

>  <submitter_email>  (83) 
None

>  <submitter_name>  (83) 
None

$$$$
PCGIMQYKMNOYEP-SSDOTTSWSA-N
     RDKit          3D

 18 19  0  0  0  0  0  0  0  0999 V2000
    7.9601    4.1403   15.0533 O   0  0  0  0  0  0  0  0  0  0  0  0
    8.6594    5.0894   14.7046 C   0  0  0  0  0  0  0  0  0  0  0  0
    9.5869    4.8821   13.5757 C   0  0  0  0  0  0  0  0  0  0  0  0
   10.4594    5.8399   13.2591 C   0  0  0  0  0  0  0  0  0  0  0  0
   11.5082    5.6852   12.1967 C   0  0  0  0  0  0  0  0  0  0  0  0
   13.0981    6.1425   12.8645 Cl  0  0  0  0  0  0  0  0  0  0  0  0
   10.4249    7.0257   13.9366 N   0  0  0  0  0  0  0  0  0  0  0  0
    9.5615    7.3321   14.9409 C   0  0  0  0  0  0  0  0  0  0  0  0
    9.6195    8.4387   15.4660 O   0  0  0  0  0  0  0  0  0  0  0  0
    8.6977    6.3291   15.3201 N   0  0  0  0  0  0  0  0  0  0  0  0
    7.8101    6.6005   16.4358 C   0  0  0  0  0  0  0  0  0  0  0  0
    6.4527    7.1295   15.9648 C   0  0  1  0  0  0  0  0  0  0  0  0
    5.3668    6.5897   16.8593 C   0  0  0  0  0  0  0  0  0  0  0  0
    5.4345    7.3173   18.1913 C   0  0  0  0  0  0  0  0  0  0  0  0
    5.7334    8.9868   17.7438 S   0  0  0  0  0  6  0  0  0  0  0  0
    6.8514    9.4739   18.5119 O   0  0  0  0  0  0  0  0  0  0  0  0
    4.4665    9.6906   17.7238 O   0  0  0  0  0  0  0  0  0  0  0  0
    6.2679    8.6322   16.0881 C   0  0  0  0  0  0  0  0  0  0  0  0
  1  2  2  0
  2  3  1  0
  3  4  2  0
  4  5  1  0
  5  6  1  0
  4  7  1  0
  7  8  1  0
  8  9  2  0
  8 10  1  0
 10 11  1  0
 12 11  1  1
 12 13  1  0
 13 14  1  0
 14 15  1  0
 15 16  2  0
 15 17  2  0
 15 18  1  0
 10  2  1  0
 18 12  1  0
M  END
>  <HIPPO ID>  (84) 
31413

>  <ref_url>  (84) 
None

>  <ref_pdb>  (84) 
c0300a

>  <inchikey>  (84) 
PCGIMQYKMNOYEP-SSDOTTSWSA-N

>  <original SMILES>  (84) 
O=c1cc(CCl)[nH]c(=O)n1C[C@H]1CCS(=O)(=O)C1

>  <generation_date>  (84) 
None

>  <tags>  (84) 
[]

>  <ref_mols>  (84) 
c0314a,c1182a

>  <alias>  (84) 
None

>  <original ID>  (84) 
PCGIMQYKMNOYEP-SSDOTTSWSA-N

>  <exports>  (84) 
['/opt/xchem-fragalysis-2/maxwin/CHIKV_HIPPO/hippo_prod/CHIKV_prod11c_recipes/Recipe_1GJWBFH_poses.sdf', '/opt/xchem-fragalysis-2/maxwin/CHIKV_HIPPO/hippo_prod/CHIKV_prod11c_recipes/Recipe_1GJXK8G_poses.sdf', '/opt/xchem-fragalysis-2/maxwin/CHIKV_HIPPO/hippo_prod/CHIKV_prod11c_recipes/Recipe_1GJXW46_poses.sdf']

>  <method>  (84) 
None

>  <submitter_email>  (84) 
None

>  <submitter_name>  (84) 
None

$$$$
RPVLVMNDDYWZTO-SSDOTTSWSA-N
     RDKit          3D

 18 19  0  0  0  0  0  0  0  0999 V2000
   11.1264    6.2306   12.0633 O   0  0  0  0  0  0  0  0  0  0  0  0
   10.4391    6.2926   13.0686 C   0  0  0  0  0  0  0  0  0  0  0  0
    9.3733    5.3331   13.3303 C   0  0  0  0  0  0  0  0  0  0  0  0
    8.5903    5.5135   14.4054 C   0  0  0  0  0  0  0  0  0  0  0  0
    7.6823    4.4175   14.8197 C   0  0  0  0  0  0  0  0  0  0  0  0
    8.7325    3.4493   15.8549 Cl  0  0  0  0  0  0  0  0  0  0  0  0
    8.7221    6.6344   15.2191 N   0  0  0  0  0  0  0  0  0  0  0  0
    7.8612    6.8575   16.3892 C   0  0  0  0  0  0  0  0  0  0  0  0
    6.4325    7.2498   16.0018 C   0  0  1  0  0  0  0  0  0  0  0  0
    5.4257    6.6180   16.9366 C   0  0  0  0  0  0  0  0  0  0  0  0
    5.4656    7.3512   18.2632 C   0  0  0  0  0  0  0  0  0  0  0  0
    5.6765    9.0333   17.8178 S   0  0  0  0  0  6  0  0  0  0  0  0
    4.3914    9.6985   17.8495 O   0  0  0  0  0  0  0  0  0  0  0  0
    6.8111    9.5474   18.5411 O   0  0  0  0  0  0  0  0  0  0  0  0
    6.1571    8.7301   16.1412 C   0  0  0  0  0  0  0  0  0  0  0  0
    9.7102    7.5623   14.9745 C   0  0  0  0  0  0  0  0  0  0  0  0
    9.8056    8.6243   15.5734 O   0  0  0  0  0  0  0  0  0  0  0  0
   10.6266    7.2323   14.0241 N   0  0  0  0  0  0  0  0  0  0  0  0
  1  2  2  0
  2  3  1  0
  3  4  2  0
  4  5  1  0
  5  6  1  0
  4  7  1  0
  7  8  1  0
  9  8  1  1
  9 10  1  0
 10 11  1  0
 11 12  1  0
 12 13  2  0
 12 14  2  0
 12 15  1  0
  7 16  1  0
 16 17  2  0
 16 18  1  0
 18  2  1  0
 15  9  1  0
M  END
>  <HIPPO ID>  (85) 
31414

>  <ref_url>  (85) 
None

>  <ref_pdb>  (85) 
c0300a

>  <inchikey>  (85) 
RPVLVMNDDYWZTO-SSDOTTSWSA-N

>  <original SMILES>  (85) 
O=c1cc(CCl)n(C[C@H]2CCS(=O)(=O)C2)c(=O)[nH]1

>  <generation_date>  (85) 
None

>  <tags>  (85) 
[]

>  <ref_mols>  (85) 
c0314a,c1182a

>  <alias>  (85) 
None

>  <original ID>  (85) 
RPVLVMNDDYWZTO-SSDOTTSWSA-N

>  <exports>  (85) 
['/opt/xchem-fragalysis-2/maxwin/CHIKV_HIPPO/hippo_prod/CHIKV_prod11c_recipes/Recipe_1GJWBFH_poses.sdf', '/opt/xchem-fragalysis-2/maxwin/CHIKV_HIPPO/hippo_prod/CHIKV_prod11c_recipes/Recipe_1GJXK8G_poses.sdf', '/opt/xchem-fragalysis-2/maxwin/CHIKV_HIPPO/hippo_prod/CHIKV_prod11c_recipes/Recipe_1GJXW46_poses.sdf']

>  <method>  (85) 
None

>  <submitter_email>  (85) 
None

>  <submitter_name>  (85) 
None

$$$$
RPVLVMNDDYWZTO-SSDOTTSWSA-N
     RDKit          3D

 18 19  0  0  0  0  0  0  0  0999 V2000
   10.9652    6.1094   11.9230 O   0  0  0  0  0  0  0  0  0  0  0  0
   10.2913    6.2195   12.9331 C   0  0  0  0  0  0  0  0  0  0  0  0
    9.2333    5.2711   13.2658 C   0  0  0  0  0  0  0  0  0  0  0  0
    8.5060    5.4668   14.3782 C   0  0  0  0  0  0  0  0  0  0  0  0
    7.6363    4.3648   14.8639 C   0  0  0  0  0  0  0  0  0  0  0  0
    8.7621    3.3797   15.8022 Cl  0  0  0  0  0  0  0  0  0  0  0  0
    8.6852    6.6002   15.1646 N   0  0  0  0  0  0  0  0  0  0  0  0
    8.0942    6.7273   16.4873 C   0  0  0  0  0  0  0  0  0  0  0  0
    6.6098    7.0475   16.5783 C   0  0  1  0  0  0  0  0  0  0  0  0
    6.2508    6.8762   18.0560 C   0  0  0  0  0  0  0  0  0  0  0  0
    5.0087    7.6624   18.3254 C   0  0  0  0  0  0  0  0  0  0  0  0
    5.4334    9.1861   17.5871 S   0  0  0  0  0  6  0  0  0  0  0  0
    4.2186    9.8589   17.2144 O   0  0  0  0  0  0  0  0  0  0  0  0
    6.4146    9.8129   18.4347 O   0  0  0  0  0  0  0  0  0  0  0  0
    6.2553    8.4755   16.1892 C   0  0  0  0  0  0  0  0  0  0  0  0
    9.6648    7.5255   14.8568 C   0  0  0  0  0  0  0  0  0  0  0  0
    9.8469    8.5640   15.4806 O   0  0  0  0  0  0  0  0  0  0  0  0
   10.4978    7.2048   13.8339 N   0  0  0  0  0  0  0  0  0  0  0  0
  1  2  2  0
  2  3  1  0
  3  4  2  0
  4  5  1  0
  5  6  1  0
  4  7  1  0
  7  8  1  0
  9  8  1  1
  9 10  1  0
 10 11  1  0
 11 12  1  0
 12 13  2  0
 12 14  2  0
 12 15  1  0
  7 16  1  0
 16 17  2  0
 16 18  1  0
 18  2  1  0
 15  9  1  0
M  END
>  <HIPPO ID>  (86) 
31415

>  <ref_url>  (86) 
None

>  <ref_pdb>  (86) 
c0300a

>  <inchikey>  (86) 
RPVLVMNDDYWZTO-SSDOTTSWSA-N

>  <original SMILES>  (86) 
O=c1cc(CCl)n(C[C@H]2CCS(=O)(=O)C2)c(=O)[nH]1

>  <generation_date>  (86) 
None

>  <tags>  (86) 
[]

>  <ref_mols>  (86) 
c0314a,c1182a

>  <alias>  (86) 
None

>  <original ID>  (86) 
RPVLVMNDDYWZTO-SSDOTTSWSA-N

>  <exports>  (86) 
['/opt/xchem-fragalysis-2/maxwin/CHIKV_HIPPO/hippo_prod/CHIKV_prod11c_recipes/Recipe_1GJWBFH_poses.sdf', '/opt/xchem-fragalysis-2/maxwin/CHIKV_HIPPO/hippo_prod/CHIKV_prod11c_recipes/Recipe_1GJXK8G_poses.sdf', '/opt/xchem-fragalysis-2/maxwin/CHIKV_HIPPO/hippo_prod/CHIKV_prod11c_recipes/Recipe_1GJXW46_poses.sdf']

>  <method>  (86) 
None

>  <submitter_email>  (86) 
None

>  <submitter_name>  (86) 
None

$$$$
VJAMXYGHDOELAK-SSDOTTSWSA-N
     RDKit          3D

 19 20  0  0  0  0  0  0  0  0999 V2000
    6.5255    4.1832   14.1626 C   0  0  0  0  0  0  0  0  0  0  0  0
    7.7592    4.1876   15.0542 C   0  0  0  0  0  0  0  0  0  0  0  0
    8.7636    5.2443   14.6745 C   0  0  0  0  0  0  0  0  0  0  0  0
    9.6559    4.9700   13.6992 C   0  0  0  0  0  0  0  0  0  0  0  0
    9.7808    3.7579   13.0237 N   0  0  0  0  0  0  0  0  0  0  0  0
   10.6137    6.0421   13.3131 C   0  0  0  0  0  0  0  0  0  0  0  0
   11.3777    5.9007   12.3654 O   0  0  0  0  0  0  0  0  0  0  0  0
   10.5985    7.1638   14.0605 N   0  0  0  0  0  0  0  0  0  0  0  0
    9.6491    7.4831   14.9755 C   0  0  0  0  0  0  0  0  0  0  0  0
    9.6285    8.6155   15.4432 O   0  0  0  0  0  0  0  0  0  0  0  0
    8.7720    6.4764   15.3363 N   0  0  0  0  0  0  0  0  0  0  0  0
    7.8718    6.7893   16.4488 C   0  0  0  0  0  0  0  0  0  0  0  0
    6.4826    7.2315   15.9890 C   0  0  1  0  0  0  0  0  0  0  0  0
    5.4168    6.6094   16.8635 C   0  0  0  0  0  0  0  0  0  0  0  0
    5.4320    7.3210   18.2072 C   0  0  0  0  0  0  0  0  0  0  0  0
    5.6964    9.0080   17.8028 S   0  0  0  0  0  6  0  0  0  0  0  0
    6.8197    9.4925   18.5654 O   0  0  0  0  0  0  0  0  0  0  0  0
    4.4244    9.7005   17.8076 O   0  0  0  0  0  0  0  0  0  0  0  0
    6.2204    8.7154   16.1390 C   0  0  0  0  0  0  0  0  0  0  0  0
  1  2  1  0
  2  3  1  0
  3  4  2  0
  4  5  1  0
  4  6  1  0
  6  7  2  0
  6  8  1  0
  8  9  1  0
  9 10  2  0
  9 11  1  0
 11 12  1  0
 13 12  1  1
 13 14  1  0
 14 15  1  0
 15 16  1  0
 16 17  2  0
 16 18  2  0
 16 19  1  0
 11  3  1  0
 19 13  1  0
M  END
>  <HIPPO ID>  (87) 
32116

>  <ref_url>  (87) 
None

>  <ref_pdb>  (87) 
c0300a

>  <inchikey>  (87) 
VJAMXYGHDOELAK-SSDOTTSWSA-N

>  <original SMILES>  (87) 
CCc1c(N)c(=O)[nH]c(=O)n1C[C@H]1CCS(=O)(=O)C1

>  <generation_date>  (87) 
None

>  <tags>  (87) 
[]

>  <ref_mols>  (87) 
c0314a,c1182a

>  <alias>  (87) 
None

>  <original ID>  (87) 
VJAMXYGHDOELAK-SSDOTTSWSA-N

>  <exports>  (87) 
['/opt/xchem-fragalysis-2/maxwin/CHIKV_HIPPO/hippo_prod/CHIKV_prod11c_recipes/Recipe_1GJWBFH_poses.sdf', '/opt/xchem-fragalysis-2/maxwin/CHIKV_HIPPO/hippo_prod/CHIKV_prod11c_recipes/Recipe_1GJXK8G_poses.sdf', '/opt/xchem-fragalysis-2/maxwin/CHIKV_HIPPO/hippo_prod/CHIKV_prod11c_recipes/Recipe_1GJXW46_poses.sdf']

>  <method>  (87) 
None

>  <submitter_email>  (87) 
None

>  <submitter_name>  (87) 
None

$$$$
VJAMXYGHDOELAK-SSDOTTSWSA-N
     RDKit          3D

 19 20  0  0  0  0  0  0  0  0999 V2000
    6.4826    4.2170   14.1231 C   0  0  0  0  0  0  0  0  0  0  0  0
    7.7128    4.2068   15.0232 C   0  0  0  0  0  0  0  0  0  0  0  0
    8.7377    5.2510   14.6575 C   0  0  0  0  0  0  0  0  0  0  0  0
    9.6376    4.9693   13.6912 C   0  0  0  0  0  0  0  0  0  0  0  0
    9.7600    3.7569   13.0159 N   0  0  0  0  0  0  0  0  0  0  0  0
   10.6110    6.0317   13.3156 C   0  0  0  0  0  0  0  0  0  0  0  0
   11.3959    5.8735   12.3874 O   0  0  0  0  0  0  0  0  0  0  0  0
   10.5874    7.1615   14.0496 N   0  0  0  0  0  0  0  0  0  0  0  0
    9.6494    7.4784   14.9768 C   0  0  0  0  0  0  0  0  0  0  0  0
    9.6520    8.6021   15.4657 O   0  0  0  0  0  0  0  0  0  0  0  0
    8.7617    6.4780   15.3288 N   0  0  0  0  0  0  0  0  0  0  0  0
    7.8678    6.7905   16.4455 C   0  0  0  0  0  0  0  0  0  0  0  0
    6.4803    7.2390   15.9902 C   0  0  1  0  0  0  0  0  0  0  0  0
    5.4172    6.6169   16.8656 C   0  0  0  0  0  0  0  0  0  0  0  0
    5.4339    7.3247   18.2103 C   0  0  0  0  0  0  0  0  0  0  0  0
    5.6979    9.0121   17.8082 S   0  0  0  0  0  6  0  0  0  0  0  0
    4.4257    9.7044   17.8170 O   0  0  0  0  0  0  0  0  0  0  0  0
    6.8213    9.4942   18.5724 O   0  0  0  0  0  0  0  0  0  0  0  0
    6.2212    8.7226   16.1435 C   0  0  0  0  0  0  0  0  0  0  0  0
  1  2  1  0
  2  3  1  0
  3  4  2  0
  4  5  1  0
  4  6  1  0
  6  7  2  0
  6  8  1  0
  8  9  1  0
  9 10  2  0
  9 11  1  0
 11 12  1  0
 13 12  1  1
 13 14  1  0
 14 15  1  0
 15 16  1  0
 16 17  2  0
 16 18  2  0
 16 19  1  0
 11  3  1  0
 19 13  1  0
M  END
>  <HIPPO ID>  (88) 
32117

>  <ref_url>  (88) 
None

>  <ref_pdb>  (88) 
c0300a

>  <inchikey>  (88) 
VJAMXYGHDOELAK-SSDOTTSWSA-N

>  <original SMILES>  (88) 
CCc1c(N)c(=O)[nH]c(=O)n1C[C@H]1CCS(=O)(=O)C1

>  <generation_date>  (88) 
None

>  <tags>  (88) 
[]

>  <ref_mols>  (88) 
c0314a,c1182a

>  <alias>  (88) 
None

>  <original ID>  (88) 
VJAMXYGHDOELAK-SSDOTTSWSA-N

>  <exports>  (88) 
['/opt/xchem-fragalysis-2/maxwin/CHIKV_HIPPO/hippo_prod/CHIKV_prod11c_recipes/Recipe_1GJWBFH_poses.sdf', '/opt/xchem-fragalysis-2/maxwin/CHIKV_HIPPO/hippo_prod/CHIKV_prod11c_recipes/Recipe_1GJXK8G_poses.sdf', '/opt/xchem-fragalysis-2/maxwin/CHIKV_HIPPO/hippo_prod/CHIKV_prod11c_recipes/Recipe_1GJXW46_poses.sdf']

>  <method>  (88) 
None

>  <submitter_email>  (88) 
None

>  <submitter_name>  (88) 
None

$$$$
YERROGAWGHMJSN-SSDOTTSWSA-N
     RDKit          3D

 19 20  0  0  0  0  0  0  0  0999 V2000
   11.4471    6.1564   11.6355 C   0  0  0  0  0  0  0  0  0  0  0  0
   11.6395    6.0631   13.1388 C   0  0  0  0  0  0  0  0  0  0  0  0
   10.3153    5.9206   13.8377 C   0  0  0  0  0  0  0  0  0  0  0  0
    9.8480    7.0092   14.5088 N   0  0  0  0  0  0  0  0  0  0  0  0
    8.6250    7.1207   15.1013 C   0  0  0  0  0  0  0  0  0  0  0  0
    8.3787    8.1858   15.6527 O   0  0  0  0  0  0  0  0  0  0  0  0
    7.8005    6.0194   15.0378 N   0  0  0  0  0  0  0  0  0  0  0  0
    6.3558    6.0891   15.2810 C   0  0  0  0  0  0  0  0  0  0  0  0
    5.7400    6.8708   16.4233 C   0  0  1  0  0  0  0  0  0  0  0  0
    6.4863    6.7146   17.7333 C   0  0  0  0  0  0  0  0  0  0  0  0
    5.7637    7.5848   18.7364 C   0  0  0  0  0  0  0  0  0  0  0  0
    5.4343    9.0559   17.8276 S   0  0  0  0  0  6  0  0  0  0  0  0
    4.1154    9.5413   18.1515 O   0  0  0  0  0  0  0  0  0  0  0  0
    6.5785    9.9086   17.9929 O   0  0  0  0  0  0  0  0  0  0  0  0
    5.4802    8.3476   16.1977 C   0  0  0  0  0  0  0  0  0  0  0  0
    8.2134    4.8509   14.4173 C   0  0  0  0  0  0  0  0  0  0  0  0
    7.5105    3.8416   14.3032 O   0  0  0  0  0  0  0  0  0  0  0  0
    9.5809    4.8060   13.7881 C   0  0  0  0  0  0  0  0  0  0  0  0
    9.9177    3.6298   13.1480 N   0  0  0  0  0  0  0  0  0  0  0  0
  1  2  1  0
  2  3  1  0
  3  4  1  0
  4  5  1  0
  5  6  2  0
  5  7  1  0
  7  8  1  0
  9  8  1  6
  9 10  1  0
 10 11  1  0
 11 12  1  0
 12 13  2  0
 12 14  2  0
 12 15  1  0
  7 16  1  0
 16 17  2  0
 16 18  1  0
 18 19  1  0
 18  3  2  0
 15  9  1  0
M  END
>  <HIPPO ID>  (89) 
32123

>  <ref_url>  (89) 
None

>  <ref_pdb>  (89) 
c0300a

>  <inchikey>  (89) 
YERROGAWGHMJSN-SSDOTTSWSA-N

>  <original SMILES>  (89) 
CCc1[nH]c(=O)n(C[C@H]2CCS(=O)(=O)C2)c(=O)c1N

>  <generation_date>  (89) 
None

>  <tags>  (89) 
[]

>  <ref_mols>  (89) 
c0314a,c1182a

>  <alias>  (89) 
None

>  <original ID>  (89) 
YERROGAWGHMJSN-SSDOTTSWSA-N

>  <exports>  (89) 
['/opt/xchem-fragalysis-2/maxwin/CHIKV_HIPPO/hippo_prod/CHIKV_prod11c_recipes/Recipe_1GJWBFH_poses.sdf', '/opt/xchem-fragalysis-2/maxwin/CHIKV_HIPPO/hippo_prod/CHIKV_prod11c_recipes/Recipe_1GJXK8G_poses.sdf', '/opt/xchem-fragalysis-2/maxwin/CHIKV_HIPPO/hippo_prod/CHIKV_prod11c_recipes/Recipe_1GJXW46_poses.sdf']

>  <method>  (89) 
None

>  <submitter_email>  (89) 
None

>  <submitter_name>  (89) 
None

$$$$
YERROGAWGHMJSN-SSDOTTSWSA-N
     RDKit          3D

 19 20  0  0  0  0  0  0  0  0999 V2000
   11.6366    6.0030   11.4857 C   0  0  0  0  0  0  0  0  0  0  0  0
   11.9477    5.7524   12.9481 C   0  0  0  0  0  0  0  0  0  0  0  0
   10.6852    5.8237   13.7599 C   0  0  0  0  0  0  0  0  0  0  0  0
   10.4643    7.0077   14.3907 N   0  0  0  0  0  0  0  0  0  0  0  0
    9.2870    7.3815   14.9527 C   0  0  0  0  0  0  0  0  0  0  0  0
    9.1842    8.5465   15.3227 O   0  0  0  0  0  0  0  0  0  0  0  0
    8.3017    6.4153   15.0265 N   0  0  0  0  0  0  0  0  0  0  0  0
    6.9382    6.8673   15.2526 C   0  0  0  0  0  0  0  0  0  0  0  0
    6.4506    6.9876   16.6801 C   0  0  1  0  0  0  0  0  0  0  0  0
    7.3658    7.8707   17.5263 C   0  0  0  0  0  0  0  0  0  0  0  0
    6.5956    8.1611   18.7903 C   0  0  0  0  0  0  0  0  0  0  0  0
    5.0474    8.7038   18.1555 S   0  0  0  0  0  6  0  0  0  0  0  0
    5.2090   10.0800   17.7392 O   0  0  0  0  0  0  0  0  0  0  0  0
    4.0050    8.3147   19.0714 O   0  0  0  0  0  0  0  0  0  0  0  0
    5.0720    7.6799   16.6919 C   0  0  0  0  0  0  0  0  0  0  0  0
    8.4917    5.1232   14.5757 C   0  0  0  0  0  0  0  0  0  0  0  0
    7.6679    4.2125   14.6929 O   0  0  0  0  0  0  0  0  0  0  0  0
    9.7752    4.8450   13.8192 C   0  0  0  0  0  0  0  0  0  0  0  0
    9.8707    3.6239   13.1831 N   0  0  0  0  0  0  0  0  0  0  0  0
  1  2  1  0
  2  3  1  0
  3  4  1  0
  4  5  1  0
  5  6  2  0
  5  7  1  0
  7  8  1  0
  9  8  1  6
  9 10  1  0
 10 11  1  0
 11 12  1  0
 12 13  2  0
 12 14  2  0
 12 15  1  0
  7 16  1  0
 16 17  2  0
 16 18  1  0
 18 19  1  0
 18  3  2  0
 15  9  1  0
M  END
>  <HIPPO ID>  (90) 
32124

>  <ref_url>  (90) 
None

>  <ref_pdb>  (90) 
c0300a

>  <inchikey>  (90) 
YERROGAWGHMJSN-SSDOTTSWSA-N

>  <original SMILES>  (90) 
CCc1[nH]c(=O)n(C[C@H]2CCS(=O)(=O)C2)c(=O)c1N

>  <generation_date>  (90) 
None

>  <tags>  (90) 
[]

>  <ref_mols>  (90) 
c0314a,c1182a

>  <alias>  (90) 
None

>  <original ID>  (90) 
YERROGAWGHMJSN-SSDOTTSWSA-N

>  <exports>  (90) 
['/opt/xchem-fragalysis-2/maxwin/CHIKV_HIPPO/hippo_prod/CHIKV_prod11c_recipes/Recipe_1GJWBFH_poses.sdf', '/opt/xchem-fragalysis-2/maxwin/CHIKV_HIPPO/hippo_prod/CHIKV_prod11c_recipes/Recipe_1GJXK8G_poses.sdf', '/opt/xchem-fragalysis-2/maxwin/CHIKV_HIPPO/hippo_prod/CHIKV_prod11c_recipes/Recipe_1GJXW46_poses.sdf']

>  <method>  (90) 
None

>  <submitter_email>  (90) 
None

>  <submitter_name>  (90) 
None

$$$$
LYEUFVGGUCTBSU-SSDOTTSWSA-N
     RDKit          3D

 20 22  0  0  0  0  0  0  0  0999 V2000
    9.7052    4.0300   12.5845 C   0  0  0  0  0  0  0  0  0  0  0  0
   10.1615    5.3028   13.0096 N   0  0  0  0  0  0  0  0  0  0  0  0
   11.3867    5.7191   12.6454 N   0  0  0  0  0  0  0  0  0  0  0  0
   11.6077    6.7551   13.4536 C   0  0  0  0  0  0  0  0  0  0  0  0
   10.4950    6.9878   14.2585 C   0  0  0  0  0  0  0  0  0  0  0  0
   10.3529    7.8491   15.3176 N   0  0  0  0  0  0  0  0  0  0  0  0
    9.3066    7.5801   16.0395 C   0  0  0  0  0  0  0  0  0  0  0  0
    9.3226    8.4140   17.5200 Cl  0  0  0  0  0  0  0  0  0  0  0  0
    8.2978    6.6420   15.7841 N   0  0  0  0  0  0  0  0  0  0  0  0
    7.3608    6.2532   16.8036 C   0  0  0  0  0  0  0  0  0  0  0  0
    5.9391    6.7881   16.7993 C   0  0  1  0  0  0  0  0  0  0  0  0
    5.5184    6.9054   18.2774 C   0  0  0  0  0  0  0  0  0  0  0  0
    5.9359    8.2136   18.8534 C   0  0  0  0  0  0  0  0  0  0  0  0
    5.4898    9.2774   17.5519 S   0  0  0  0  0  6  0  0  0  0  0  0
    4.1157    9.6513   17.7529 O   0  0  0  0  0  0  0  0  0  0  0  0
    6.5183   10.2625   17.4979 O   0  0  0  0  0  0  0  0  0  0  0  0
    5.6692    8.1487   16.1887 C   0  0  0  0  0  0  0  0  0  0  0  0
    8.4036    5.7770   14.7172 C   0  0  0  0  0  0  0  0  0  0  0  0
    7.6539    4.8203   14.5356 O   0  0  0  0  0  0  0  0  0  0  0  0
    9.5851    6.0247   13.9810 C   0  0  0  0  0  0  0  0  0  0  0  0
  1  2  1  0
  2  3  1  0
  3  4  2  0
  4  5  1  0
  5  6  1  0
  6  7  2  0
  7  8  1  0
  7  9  1  0
  9 10  1  0
 11 10  1  1
 11 12  1  0
 12 13  1  0
 13 14  1  0
 14 15  2  0
 14 16  2  0
 14 17  1  0
  9 18  1  0
 18 19  2  0
 18 20  1  0
 20  2  1  0
 20  5  2  0
 17 11  1  0
M  END
>  <HIPPO ID>  (91) 
32410

>  <ref_url>  (91) 
None

>  <ref_pdb>  (91) 
c0300a

>  <inchikey>  (91) 
LYEUFVGGUCTBSU-SSDOTTSWSA-N

>  <original SMILES>  (91) 
Cn1ncc2nc(Cl)n(C[C@H]3CCS(=O)(=O)C3)c(=O)c21

>  <generation_date>  (91) 
None

>  <tags>  (91) 
[]

>  <ref_mols>  (91) 
c0314a,c1182a

>  <alias>  (91) 
None

>  <original ID>  (91) 
LYEUFVGGUCTBSU-SSDOTTSWSA-N

>  <exports>  (91) 
['/opt/xchem-fragalysis-2/maxwin/CHIKV_HIPPO/hippo_prod/CHIKV_prod11c_recipes/Recipe_1GJWBFH_poses.sdf', '/opt/xchem-fragalysis-2/maxwin/CHIKV_HIPPO/hippo_prod/CHIKV_prod11c_recipes/Recipe_1GJXK8G_poses.sdf', '/opt/xchem-fragalysis-2/maxwin/CHIKV_HIPPO/hippo_prod/CHIKV_prod11c_recipes/Recipe_1GJXW46_poses.sdf']

>  <method>  (91) 
None

>  <submitter_email>  (91) 
None

>  <submitter_name>  (91) 
None

$$$$
NEFGIVMWIPKFJT-UHFFFAOYSA-N
     RDKit          3D

 17 18  0  0  0  0  0  0  0  0999 V2000
   13.8992    8.9335    9.1050 C   0  0  0  0  0  0  0  0  0  0  0  0
   14.6616    8.3362   10.2664 C   0  0  0  0  0  0  0  0  0  0  0  0
   14.4850    6.8813   10.4847 C   0  0  0  0  0  0  0  0  0  0  0  0
   15.2893    6.0761   11.1431 N   0  0  0  0  0  0  0  0  0  0  0  0
   14.7676    4.8389   10.8528 C   0  0  0  0  0  0  0  0  0  0  0  0
   15.4909    3.5695   11.1645 C   0  0  0  0  0  0  0  0  0  0  0  0
   16.0860    3.5768   12.5106 N   0  0  0  0  0  0  0  0  0  0  0  0
   15.5266    2.7821   13.4893 C   0  0  0  0  0  0  0  0  0  0  0  0
   16.0482    2.6757   14.7115 C   0  0  0  0  0  0  0  0  0  0  0  0
   17.1829    3.4758   15.0783 C   0  0  0  0  0  0  0  0  0  0  0  0
   17.7213    3.3373   16.8644 Br  0  0  0  0  0  0  0  0  0  0  0  0
   17.7560    4.2760   14.1661 C   0  0  0  0  0  0  0  0  0  0  0  0
   18.9890    5.4020   14.5717 Cl  0  0  0  0  0  0  0  0  0  0  0  0
   17.2916    4.2447   12.7318 C   0  0  0  0  0  0  0  0  0  0  0  0
   17.9585    4.7666   11.8337 O   0  0  0  0  0  0  0  0  0  0  0  0
   13.6435    4.8673   10.1193 N   0  0  0  0  0  0  0  0  0  0  0  0
   13.4464    6.2331    9.8837 O   0  0  0  0  0  0  0  0  0  0  0  0
  1  2  1  0
  2  3  1  0
  3  4  2  0
  4  5  1  0
  5  6  1  0
  6  7  1  0
  7  8  1  0
  8  9  2  0
  9 10  1  0
 10 11  1  0
 10 12  2  0
 12 13  1  0
 12 14  1  0
 14 15  2  0
  5 16  2  0
 16 17  1  0
 17  3  1  0
 14  7  1  0
M  END
>  <HIPPO ID>  (92) 
35361

>  <ref_url>  (92) 
None

>  <ref_pdb>  (92) 
c0300a

>  <inchikey>  (92) 
NEFGIVMWIPKFJT-UHFFFAOYSA-N

>  <original SMILES>  (92) 
CCc1nc(Cn2ccc(Br)c(Cl)c2=O)no1

>  <generation_date>  (92) 
None

>  <tags>  (92) 
[]

>  <ref_mols>  (92) 
c0316a,c1091a

>  <alias>  (92) 
None

>  <original ID>  (92) 
NEFGIVMWIPKFJT-UHFFFAOYSA-N

>  <exports>  (92) 
['/opt/xchem-fragalysis-2/maxwin/CHIKV_HIPPO/hippo_prod/CHIKV_prod11c_recipes/Recipe_1GJWBFH_poses.sdf', '/opt/xchem-fragalysis-2/maxwin/CHIKV_HIPPO/hippo_prod/CHIKV_prod11c_recipes/Recipe_1GJXK8G_poses.sdf', '/opt/xchem-fragalysis-2/maxwin/CHIKV_HIPPO/hippo_prod/CHIKV_prod11c_recipes/Recipe_1GJXW46_poses.sdf']

>  <method>  (92) 
None

>  <submitter_email>  (92) 
None

>  <submitter_name>  (92) 
None

$$$$
SHZLHXGONWQKGR-UHFFFAOYSA-N
     RDKit          3D

 17 18  0  0  0  0  0  0  0  0999 V2000
   13.9005    8.9561    9.1044 C   0  0  0  0  0  0  0  0  0  0  0  0
   14.6567    8.3492   10.2648 C   0  0  0  0  0  0  0  0  0  0  0  0
   14.4904    6.8893   10.4561 C   0  0  0  0  0  0  0  0  0  0  0  0
   15.2985    6.0784   11.1031 N   0  0  0  0  0  0  0  0  0  0  0  0
   14.8090    4.8421   10.7573 C   0  0  0  0  0  0  0  0  0  0  0  0
   15.5585    3.5793   11.0245 C   0  0  0  0  0  0  0  0  0  0  0  0
   16.1431    3.5551   12.3743 N   0  0  0  0  0  0  0  0  0  0  0  0
   15.5582    2.7554   13.3300 C   0  0  0  0  0  0  0  0  0  0  0  0
   16.0658    2.6168   14.5532 C   0  0  0  0  0  0  0  0  0  0  0  0
   17.1945    3.4077   14.9490 C   0  0  0  0  0  0  0  0  0  0  0  0
   17.6717    3.2764   16.7541 Br  0  0  0  0  0  0  0  0  0  0  0  0
   17.7855    4.2357   14.0693 C   0  0  0  0  0  0  0  0  0  0  0  0
   18.8240    5.2327   14.4545 C   0  0  0  0  0  0  0  0  0  0  0  0
   17.3471    4.2033   12.6265 C   0  0  0  0  0  0  0  0  0  0  0  0
   18.0397    4.7336   11.7551 O   0  0  0  0  0  0  0  0  0  0  0  0
   13.6946    4.8723   10.0094 N   0  0  0  0  0  0  0  0  0  0  0  0
   13.4701    6.2417    9.8231 O   0  0  0  0  0  0  0  0  0  0  0  0
  1  2  1  0
  2  3  1  0
  3  4  2  0
  4  5  1  0
  5  6  1  0
  6  7  1  0
  7  8  1  0
  8  9  2  0
  9 10  1  0
 10 11  1  0
 10 12  2  0
 12 13  1  0
 12 14  1  0
 14 15  2  0
  5 16  2  0
 16 17  1  0
 17  3  1  0
 14  7  1  0
M  END
>  <HIPPO ID>  (93) 
35363

>  <ref_url>  (93) 
None

>  <ref_pdb>  (93) 
c0300a

>  <inchikey>  (93) 
SHZLHXGONWQKGR-UHFFFAOYSA-N

>  <original SMILES>  (93) 
CCc1nc(Cn2ccc(Br)c(C)c2=O)no1

>  <generation_date>  (93) 
None

>  <tags>  (93) 
[]

>  <ref_mols>  (93) 
c0316a,c1091a

>  <alias>  (93) 
None

>  <original ID>  (93) 
SHZLHXGONWQKGR-UHFFFAOYSA-N

>  <exports>  (93) 
['/opt/xchem-fragalysis-2/maxwin/CHIKV_HIPPO/hippo_prod/CHIKV_prod11_recipes/Recipe_1G8PPKY_poses.sdf', '/opt/xchem-fragalysis-2/maxwin/CHIKV_HIPPO/hippo_prod/CHIKV_prod11c_recipes/Recipe_1GJWBFH_poses.sdf', '/opt/xchem-fragalysis-2/maxwin/CHIKV_HIPPO/hippo_prod/CHIKV_prod11c_recipes/Recipe_1GJXK8G_poses.sdf', '/opt/xchem-fragalysis-2/maxwin/CHIKV_HIPPO/hippo_prod/CHIKV_prod11c_recipes/Recipe_1GJXW46_poses.sdf']

>  <method>  (93) 
None

>  <submitter_email>  (93) 
None

>  <submitter_name>  (93) 
None

$$$$
FEWSYXLGXPZOAJ-UHFFFAOYSA-N
     RDKit          3D

 17 18  0  0  0  0  0  0  0  0999 V2000
   13.8964    8.9386    9.0964 C   0  0  0  0  0  0  0  0  0  0  0  0
   14.6609    8.3378   10.2545 C   0  0  0  0  0  0  0  0  0  0  0  0
   14.4788    6.8838   10.4721 C   0  0  0  0  0  0  0  0  0  0  0  0
   15.2816    6.0754   11.1275 N   0  0  0  0  0  0  0  0  0  0  0  0
   14.7518    4.8404   10.8433 C   0  0  0  0  0  0  0  0  0  0  0  0
   15.4682    3.5677   11.1578 C   0  0  0  0  0  0  0  0  0  0  0  0
   16.0903    3.5879   12.4890 N   0  0  0  0  0  0  0  0  0  0  0  0
   15.5387    2.8273   13.4979 C   0  0  0  0  0  0  0  0  0  0  0  0
   16.0878    2.7445   14.7096 C   0  0  0  0  0  0  0  0  0  0  0  0
   17.2474    3.5290   15.0246 C   0  0  0  0  0  0  0  0  0  0  0  0
   17.8668    3.4167   16.7865 Br  0  0  0  0  0  0  0  0  0  0  0  0
   17.8235    4.3226   14.1027 C   0  0  0  0  0  0  0  0  0  0  0  0
   18.8722    5.1978   14.3389 N   0  0  0  0  0  0  0  0  0  0  0  0
   17.3012    4.2447   12.6712 C   0  0  0  0  0  0  0  0  0  0  0  0
   17.9761    4.7448   11.7639 O   0  0  0  0  0  0  0  0  0  0  0  0
   13.6252    4.8733   10.1135 N   0  0  0  0  0  0  0  0  0  0  0  0
   13.4346    6.2400    9.8763 O   0  0  0  0  0  0  0  0  0  0  0  0
  1  2  1  0
  2  3  1  0
  3  4  2  0
  4  5  1  0
  5  6  1  0
  6  7  1  0
  7  8  1  0
  8  9  2  0
  9 10  1  0
 10 11  1  0
 10 12  2  0
 12 13  1  0
 12 14  1  0
 14 15  2  0
  5 16  2  0
 16 17  1  0
 17  3  1  0
 14  7  1  0
M  END
>  <HIPPO ID>  (94) 
35365

>  <ref_url>  (94) 
None

>  <ref_pdb>  (94) 
c0300a

>  <inchikey>  (94) 
FEWSYXLGXPZOAJ-UHFFFAOYSA-N

>  <original SMILES>  (94) 
CCc1nc(Cn2ccc(Br)c(N)c2=O)no1

>  <generation_date>  (94) 
None

>  <tags>  (94) 
[]

>  <ref_mols>  (94) 
c0316a,c1091a

>  <alias>  (94) 
None

>  <original ID>  (94) 
FEWSYXLGXPZOAJ-UHFFFAOYSA-N

>  <exports>  (94) 
['/opt/xchem-fragalysis-2/maxwin/CHIKV_HIPPO/hippo_prod/CHIKV_prod11c_recipes/Recipe_1GJXK8G_poses.sdf', '/opt/xchem-fragalysis-2/maxwin/CHIKV_HIPPO/hippo_prod/CHIKV_prod11c_recipes/Recipe_1GJXW46_poses.sdf']

>  <method>  (94) 
None

>  <submitter_email>  (94) 
None

>  <submitter_name>  (94) 
None

$$$$
KBVJRQKQCKILOY-UHFFFAOYSA-N
     RDKit          3D

 17 19  0  0  0  0  0  0  0  0999 V2000
   18.1509    4.6517   11.6210 O   0  0  0  0  0  0  0  0  0  0  0  0
   17.4680    4.1466   12.5119 C   0  0  0  0  0  0  0  0  0  0  0  0
   18.0048    4.1442   13.8953 C   0  0  0  0  0  0  0  0  0  0  0  0
   17.3644    3.4881   14.8690 C   0  0  0  0  0  0  0  0  0  0  0  0
   18.0295    3.3992   16.6049 Br  0  0  0  0  0  0  0  0  0  0  0  0
   16.1178    2.8297   14.5969 C   0  0  0  0  0  0  0  0  0  0  0  0
   15.5891    2.9039   13.3736 C   0  0  0  0  0  0  0  0  0  0  0  0
   16.2218    3.5640   12.3381 N   0  0  0  0  0  0  0  0  0  0  0  0
   15.6110    3.5441   11.0054 C   0  0  0  0  0  0  0  0  0  0  0  0
   14.8335    4.7800   10.7113 C   0  0  0  0  0  0  0  0  0  0  0  0
   13.7136    4.7338    9.9765 N   0  0  0  0  0  0  0  0  0  0  0  0
   13.3971    6.0754    9.7943 O   0  0  0  0  0  0  0  0  0  0  0  0
   14.3812    6.8012   10.4045 C   0  0  0  0  0  0  0  0  0  0  0  0
   14.4404    8.3520   10.3518 C   0  0  0  0  0  0  0  0  0  0  0  0
   13.8942    9.0032    9.0960 C   0  0  0  0  0  0  0  0  0  0  0  0
   15.3411    9.1220    9.4332 C   0  0  0  0  0  0  0  0  0  0  0  0
   15.2629    6.0508   11.0292 N   0  0  0  0  0  0  0  0  0  0  0  0
  1  2  2  0
  2  3  1  0
  3  4  2  0
  4  5  1  0
  4  6  1  0
  6  7  2  0
  7  8  1  0
  8  9  1  0
  9 10  1  0
 10 11  2  0
 11 12  1  0
 12 13  1  0
 13 14  1  0
 14 15  1  0
 15 16  1  0
 13 17  2  0
  8  2  1  0
 17 10  1  0
 16 14  1  0
M  END
>  <HIPPO ID>  (95) 
35366

>  <ref_url>  (95) 
None

>  <ref_pdb>  (95) 
c0300a

>  <inchikey>  (95) 
KBVJRQKQCKILOY-UHFFFAOYSA-N

>  <original SMILES>  (95) 
O=c1cc(Br)ccn1Cc1noc(C2CC2)n1

>  <generation_date>  (95) 
None

>  <tags>  (95) 
[]

>  <ref_mols>  (95) 
c0316a,c1091a

>  <alias>  (95) 
None

>  <original ID>  (95) 
KBVJRQKQCKILOY-UHFFFAOYSA-N

>  <exports>  (95) 
['/opt/xchem-fragalysis-2/maxwin/CHIKV_HIPPO/hippo_prod/CHIKV_prod11c_recipes/Recipe_1GJWBFH_poses.sdf', '/opt/xchem-fragalysis-2/maxwin/CHIKV_HIPPO/hippo_prod/CHIKV_prod11c_recipes/Recipe_1GJXK8G_poses.sdf', '/opt/xchem-fragalysis-2/maxwin/CHIKV_HIPPO/hippo_prod/CHIKV_prod11c_recipes/Recipe_1GJXW46_poses.sdf']

>  <method>  (95) 
None

>  <submitter_email>  (95) 
None

>  <submitter_name>  (95) 
None

$$$$
SRWLYATXIQCXQW-UHFFFAOYSA-N
     RDKit          3D

 18 20  0  0  0  0  0  0  0  0999 V2000
   18.8806    5.1895   14.2910 N   0  0  0  0  0  0  0  0  0  0  0  0
   17.8539    4.3012   14.0174 C   0  0  0  0  0  0  0  0  0  0  0  0
   17.2484    3.5046   14.9176 C   0  0  0  0  0  0  0  0  0  0  0  0
   17.8013    3.3995   16.7027 Br  0  0  0  0  0  0  0  0  0  0  0  0
   16.0953    2.7256   14.5636 C   0  0  0  0  0  0  0  0  0  0  0  0
   15.5874    2.8136   13.3345 C   0  0  0  0  0  0  0  0  0  0  0  0
   16.1852    3.5622   12.3447 N   0  0  0  0  0  0  0  0  0  0  0  0
   15.6167    3.5411   10.9949 C   0  0  0  0  0  0  0  0  0  0  0  0
   14.8222    4.7644   10.6939 C   0  0  0  0  0  0  0  0  0  0  0  0
   13.7043    4.7012    9.9578 N   0  0  0  0  0  0  0  0  0  0  0  0
   13.3725    6.0380    9.7692 O   0  0  0  0  0  0  0  0  0  0  0  0
   14.3458    6.7786   10.3791 C   0  0  0  0  0  0  0  0  0  0  0  0
   14.3821    8.3290   10.3234 C   0  0  0  0  0  0  0  0  0  0  0  0
   15.2332    9.1123    9.3720 C   0  0  0  0  0  0  0  0  0  0  0  0
   13.7777    8.9639    9.0850 C   0  0  0  0  0  0  0  0  0  0  0  0
   15.2313    6.0408   11.0125 N   0  0  0  0  0  0  0  0  0  0  0  0
   17.3857    4.2176   12.5706 C   0  0  0  0  0  0  0  0  0  0  0  0
   18.0895    4.7170   11.6866 O   0  0  0  0  0  0  0  0  0  0  0  0
  1  2  1  0
  2  3  2  0
  3  4  1  0
  3  5  1  0
  5  6  2  0
  6  7  1  0
  7  8  1  0
  8  9  1  0
  9 10  2  0
 10 11  1  0
 11 12  1  0
 12 13  1  0
 13 14  1  0
 14 15  1  0
 12 16  2  0
  7 17  1  0
 17 18  2  0
 17  2  1  0
 16  9  1  0
 15 13  1  0
M  END
>  <HIPPO ID>  (96) 
35367

>  <ref_url>  (96) 
None

>  <ref_pdb>  (96) 
c0300a

>  <inchikey>  (96) 
SRWLYATXIQCXQW-UHFFFAOYSA-N

>  <original SMILES>  (96) 
Nc1c(Br)ccn(Cc2noc(C3CC3)n2)c1=O

>  <generation_date>  (96) 
None

>  <tags>  (96) 
[]

>  <ref_mols>  (96) 
c0316a,c1091a

>  <alias>  (96) 
None

>  <original ID>  (96) 
SRWLYATXIQCXQW-UHFFFAOYSA-N

>  <exports>  (96) 
['/opt/xchem-fragalysis-2/maxwin/CHIKV_HIPPO/hippo_prod/CHIKV_prod11c_recipes/Recipe_1GJXK8G_poses.sdf', '/opt/xchem-fragalysis-2/maxwin/CHIKV_HIPPO/hippo_prod/CHIKV_prod11c_recipes/Recipe_1GJXW46_poses.sdf']

>  <method>  (96) 
None

>  <submitter_email>  (96) 
None

>  <submitter_name>  (96) 
None

$$$$
WFSYDNUCHCVRMD-UHFFFAOYSA-N
     RDKit          3D

 18 20  0  0  0  0  0  0  0  0999 V2000
   18.0076    4.7886   11.8609 O   0  0  0  0  0  0  0  0  0  0  0  0
   17.3298    4.2658   12.7499 C   0  0  0  0  0  0  0  0  0  0  0  0
   17.7697    4.2962   14.1907 C   0  0  0  0  0  0  0  0  0  0  0  0
   19.0064    5.4121   14.6139 Cl  0  0  0  0  0  0  0  0  0  0  0  0
   17.1765    3.4985   15.0923 C   0  0  0  0  0  0  0  0  0  0  0  0
   17.6884    3.3528   16.8855 Br  0  0  0  0  0  0  0  0  0  0  0  0
   16.0426    2.7042   14.7069 C   0  0  0  0  0  0  0  0  0  0  0  0
   15.5470    2.8060   13.4734 C   0  0  0  0  0  0  0  0  0  0  0  0
   16.1332    3.5938   12.5048 N   0  0  0  0  0  0  0  0  0  0  0  0
   15.5866    3.5679   11.1430 C   0  0  0  0  0  0  0  0  0  0  0  0
   14.8175    4.8005   10.8055 C   0  0  0  0  0  0  0  0  0  0  0  0
   13.6971    4.7440   10.0713 N   0  0  0  0  0  0  0  0  0  0  0  0
   13.3958    6.0836    9.8457 O   0  0  0  0  0  0  0  0  0  0  0  0
   14.3847    6.8183   10.4386 C   0  0  0  0  0  0  0  0  0  0  0  0
   14.4490    8.3686   10.3607 C   0  0  0  0  0  0  0  0  0  0  0  0
   13.8990    9.0047    9.0992 C   0  0  0  0  0  0  0  0  0  0  0  0
   15.3480    9.1223    9.4275 C   0  0  0  0  0  0  0  0  0  0  0  0
   15.2614    6.0760   11.0795 N   0  0  0  0  0  0  0  0  0  0  0  0
  1  2  2  0
  2  3  1  0
  3  4  1  0
  3  5  2  0
  5  6  1  0
  5  7  1  0
  7  8  2  0
  8  9  1  0
  9 10  1  0
 10 11  1  0
 11 12  2  0
 12 13  1  0
 13 14  1  0
 14 15  1  0
 15 16  1  0
 16 17  1  0
 14 18  2  0
  9  2  1  0
 18 11  1  0
 17 15  1  0
M  END
>  <HIPPO ID>  (97) 
35375

>  <ref_url>  (97) 
None

>  <ref_pdb>  (97) 
c0300a

>  <inchikey>  (97) 
WFSYDNUCHCVRMD-UHFFFAOYSA-N

>  <original SMILES>  (97) 
O=c1c(Cl)c(Br)ccn1Cc1noc(C2CC2)n1

>  <generation_date>  (97) 
None

>  <tags>  (97) 
[]

>  <ref_mols>  (97) 
c0316a,c1091a

>  <alias>  (97) 
None

>  <original ID>  (97) 
WFSYDNUCHCVRMD-UHFFFAOYSA-N

>  <exports>  (97) 
['/opt/xchem-fragalysis-2/maxwin/CHIKV_HIPPO/hippo_prod/CHIKV_prod11c_recipes/Recipe_1GJWBFH_poses.sdf', '/opt/xchem-fragalysis-2/maxwin/CHIKV_HIPPO/hippo_prod/CHIKV_prod11c_recipes/Recipe_1GJXK8G_poses.sdf', '/opt/xchem-fragalysis-2/maxwin/CHIKV_HIPPO/hippo_prod/CHIKV_prod11c_recipes/Recipe_1GJXW46_poses.sdf']

>  <method>  (97) 
None

>  <submitter_email>  (97) 
None

>  <submitter_name>  (97) 
None

$$$$
ATJZGMKGFXUPAN-UHFFFAOYSA-N
     RDKit          3D

 18 20  0  0  0  0  0  0  0  0999 V2000
   18.8581    5.2725   14.5703 C   0  0  0  0  0  0  0  0  0  0  0  0
   17.7875    4.3017   14.2023 C   0  0  0  0  0  0  0  0  0  0  0  0
   17.1892    3.4851   15.0885 C   0  0  0  0  0  0  0  0  0  0  0  0
   17.6836    3.3479   16.8872 Br  0  0  0  0  0  0  0  0  0  0  0  0
   16.0570    2.6930   14.7007 C   0  0  0  0  0  0  0  0  0  0  0  0
   15.5573    2.8078   13.4713 C   0  0  0  0  0  0  0  0  0  0  0  0
   16.1456    3.6031   12.5122 N   0  0  0  0  0  0  0  0  0  0  0  0
   15.6023    3.5831   11.1495 C   0  0  0  0  0  0  0  0  0  0  0  0
   14.8265    4.8126   10.8180 C   0  0  0  0  0  0  0  0  0  0  0  0
   13.6943    4.7504   10.1022 N   0  0  0  0  0  0  0  0  0  0  0  0
   13.3906    6.0882    9.8691 O   0  0  0  0  0  0  0  0  0  0  0  0
   14.3878    6.8270   10.4423 C   0  0  0  0  0  0  0  0  0  0  0  0
   14.4490    8.3768   10.3575 C   0  0  0  0  0  0  0  0  0  0  0  0
   13.8974    9.0057    9.0936 C   0  0  0  0  0  0  0  0  0  0  0  0
   15.3463    9.1291    9.4219 C   0  0  0  0  0  0  0  0  0  0  0  0
   15.2741    6.0902   11.0760 N   0  0  0  0  0  0  0  0  0  0  0  0
   17.3419    4.2657   12.7626 C   0  0  0  0  0  0  0  0  0  0  0  0
   18.0252    4.7954   11.8829 O   0  0  0  0  0  0  0  0  0  0  0  0
  1  2  1  0
  2  3  2  0
  3  4  1  0
  3  5  1  0
  5  6  2  0
  6  7  1  0
  7  8  1  0
  8  9  1  0
  9 10  2  0
 10 11  1  0
 11 12  1  0
 12 13  1  0
 13 14  1  0
 14 15  1  0
 12 16  2  0
  7 17  1  0
 17 18  2  0
 17  2  1  0
 16  9  1  0
 15 13  1  0
M  END
>  <HIPPO ID>  (98) 
35376

>  <ref_url>  (98) 
None

>  <ref_pdb>  (98) 
c0300a

>  <inchikey>  (98) 
ATJZGMKGFXUPAN-UHFFFAOYSA-N

>  <original SMILES>  (98) 
Cc1c(Br)ccn(Cc2noc(C3CC3)n2)c1=O

>  <generation_date>  (98) 
None

>  <tags>  (98) 
[]

>  <ref_mols>  (98) 
c0316a,c1091a

>  <alias>  (98) 
None

>  <original ID>  (98) 
ATJZGMKGFXUPAN-UHFFFAOYSA-N

>  <exports>  (98) 
['/opt/xchem-fragalysis-2/maxwin/CHIKV_HIPPO/hippo_prod/CHIKV_prod11c_recipes/Recipe_1GJWBFH_poses.sdf', '/opt/xchem-fragalysis-2/maxwin/CHIKV_HIPPO/hippo_prod/CHIKV_prod11c_recipes/Recipe_1GJXK8G_poses.sdf', '/opt/xchem-fragalysis-2/maxwin/CHIKV_HIPPO/hippo_prod/CHIKV_prod11c_recipes/Recipe_1GJXW46_poses.sdf']

>  <method>  (98) 
None

>  <submitter_email>  (98) 
None

>  <submitter_name>  (98) 
None

$$$$
RFILRJYCSBEXQS-UHFFFAOYSA-N
     RDKit          3D

 18 19  0  0  0  0  0  0  0  0999 V2000
   13.2027    8.7399    8.5418 C   0  0  0  0  0  0  0  0  0  0  0  0
   14.6102    9.1235    8.8306 C   0  0  0  0  0  0  0  0  0  0  0  0
   14.9661    9.1627   10.2839 C   0  0  0  0  0  0  0  0  0  0  0  0
   14.5639    8.0217   11.2017 C   0  0  0  0  0  0  0  0  0  0  0  0
   14.7542    6.6377   10.7693 C   0  0  0  0  0  0  0  0  0  0  0  0
   15.6379    5.7888   11.2147 N   0  0  0  0  0  0  0  0  0  0  0  0
   15.1547    4.6067   10.7206 C   0  0  0  0  0  0  0  0  0  0  0  0
   15.8267    3.3307   11.0046 C   0  0  0  0  0  0  0  0  0  0  0  0
   16.3973    3.3529   12.3547 N   0  0  0  0  0  0  0  0  0  0  0  0
   15.6934    2.7702   13.3906 C   0  0  0  0  0  0  0  0  0  0  0  0
   16.1560    2.7658   14.6423 C   0  0  0  0  0  0  0  0  0  0  0  0
   17.3938    3.4304   14.9394 C   0  0  0  0  0  0  0  0  0  0  0  0
   17.9749    3.4247   16.7072 Br  0  0  0  0  0  0  0  0  0  0  0  0
   18.0809    4.0447   13.9701 C   0  0  0  0  0  0  0  0  0  0  0  0
   17.6172    3.9852   12.5621 C   0  0  0  0  0  0  0  0  0  0  0  0
   18.3158    4.4988   11.6864 O   0  0  0  0  0  0  0  0  0  0  0  0
   14.0552    4.6985    9.9640 N   0  0  0  0  0  0  0  0  0  0  0  0
   13.7637    6.0564   10.0280 O   0  0  0  0  0  0  0  0  0  0  0  0
  1  2  1  0
  2  3  1  0
  3  4  1  0
  4  5  1  0
  5  6  2  0
  6  7  1  0
  7  8  1  0
  8  9  1  0
  9 10  1  0
 10 11  2  0
 11 12  1  0
 12 13  1  0
 12 14  2  0
 14 15  1  0
 15 16  2  0
  7 17  2  0
 17 18  1  0
 18  5  1  0
 15  9  1  0
M  END
>  <HIPPO ID>  (99) 
35385

>  <ref_url>  (99) 
None

>  <ref_pdb>  (99) 
c0300a

>  <inchikey>  (99) 
RFILRJYCSBEXQS-UHFFFAOYSA-N

>  <original SMILES>  (99) 
CCCCc1nc(Cn2ccc(Br)cc2=O)no1

>  <generation_date>  (99) 
None

>  <tags>  (99) 
[]

>  <ref_mols>  (99) 
c0316a,c1091a

>  <alias>  (99) 
None

>  <original ID>  (99) 
RFILRJYCSBEXQS-UHFFFAOYSA-N

>  <exports>  (99) 
['/opt/xchem-fragalysis-2/maxwin/CHIKV_HIPPO/hippo_prod/CHIKV_prod11c_recipes/Recipe_1GJWBFH_poses.sdf', '/opt/xchem-fragalysis-2/maxwin/CHIKV_HIPPO/hippo_prod/CHIKV_prod11c_recipes/Recipe_1GJXK8G_poses.sdf', '/opt/xchem-fragalysis-2/maxwin/CHIKV_HIPPO/hippo_prod/CHIKV_prod11c_recipes/Recipe_1GJXW46_poses.sdf']

>  <method>  (99) 
None

>  <submitter_email>  (99) 
None

>  <submitter_name>  (99) 
None

$$$$
COGGJXJYVKRWBT-UHFFFAOYSA-N
     RDKit          3D

 18 19  0  0  0  0  0  0  0  0999 V2000
   15.6490    9.2366    9.0776 C   0  0  0  0  0  0  0  0  0  0  0  0
   14.3480    9.0486    9.7906 C   0  0  0  0  0  0  0  0  0  0  0  0
   13.2729    8.7866    8.7601 C   0  0  0  0  0  0  0  0  0  0  0  0
   14.4339    8.0379   10.9286 C   0  0  0  0  0  0  0  0  0  0  0  0
   14.5732    6.6142   10.6252 C   0  0  0  0  0  0  0  0  0  0  0  0
   15.4701    5.8061   11.1244 N   0  0  0  0  0  0  0  0  0  0  0  0
   14.9765    4.5860   10.7605 C   0  0  0  0  0  0  0  0  0  0  0  0
   15.6820    3.3388   11.1118 C   0  0  0  0  0  0  0  0  0  0  0  0
   16.2760    3.4220   12.4533 N   0  0  0  0  0  0  0  0  0  0  0  0
   15.6280    2.8171   13.5139 C   0  0  0  0  0  0  0  0  0  0  0  0
   16.1341    2.8247   14.7490 C   0  0  0  0  0  0  0  0  0  0  0  0
   17.3709    3.5090   15.0026 C   0  0  0  0  0  0  0  0  0  0  0  0
   18.0229    3.4950   16.7447 Br  0  0  0  0  0  0  0  0  0  0  0  0
   18.0154    4.1297   14.0083 C   0  0  0  0  0  0  0  0  0  0  0  0
   17.4984    4.0646   12.6176 C   0  0  0  0  0  0  0  0  0  0  0  0
   18.1700    4.5726   11.7176 O   0  0  0  0  0  0  0  0  0  0  0  0
   13.8470    4.6152   10.0395 N   0  0  0  0  0  0  0  0  0  0  0  0
   13.5503    5.9767    9.9882 O   0  0  0  0  0  0  0  0  0  0  0  0
  1  2  1  0
  2  3  1  0
  2  4  1  0
  4  5  1  0
  5  6  2  0
  6  7  1  0
  7  8  1  0
  8  9  1  0
  9 10  1  0
 10 11  2  0
 11 12  1  0
 12 13  1  0
 12 14  2  0
 14 15  1  0
 15 16  2  0
  7 17  2  0
 17 18  1  0
 18  5  1  0
 15  9  1  0
M  END
>  <HIPPO ID>  (100) 
35388

>  <ref_url>  (100) 
None

>  <ref_pdb>  (100) 
c0300a

>  <inchikey>  (100) 
COGGJXJYVKRWBT-UHFFFAOYSA-N

>  <original SMILES>  (100) 
CC(C)Cc1nc(Cn2ccc(Br)cc2=O)no1

>  <generation_date>  (100) 
None

>  <tags>  (100) 
[]

>  <ref_mols>  (100) 
c0316a,c1091a

>  <alias>  (100) 
None

>  <original ID>  (100) 
COGGJXJYVKRWBT-UHFFFAOYSA-N

>  <exports>  (100) 
['/opt/xchem-fragalysis-2/maxwin/CHIKV_HIPPO/hippo_prod/CHIKV_prod11c_recipes/Recipe_1GJWBFH_poses.sdf', '/opt/xchem-fragalysis-2/maxwin/CHIKV_HIPPO/hippo_prod/CHIKV_prod11c_recipes/Recipe_1GJXK8G_poses.sdf', '/opt/xchem-fragalysis-2/maxwin/CHIKV_HIPPO/hippo_prod/CHIKV_prod11c_recipes/Recipe_1GJXW46_poses.sdf']

>  <method>  (100) 
None

>  <submitter_email>  (100) 
None

>  <submitter_name>  (100) 
None

$$$$
NHHPFWDGHSIVLB-UHFFFAOYSA-N
     RDKit          3D

 19 20  0  0  0  0  0  0  0  0999 V2000
   18.8600    5.2177   14.4959 C   0  0  0  0  0  0  0  0  0  0  0  0
   17.8463    4.1918   14.1188 C   0  0  0  0  0  0  0  0  0  0  0  0
   17.2221    3.4133   15.0212 C   0  0  0  0  0  0  0  0  0  0  0  0
   17.6426    3.3792   16.8445 Br  0  0  0  0  0  0  0  0  0  0  0  0
   16.0959    2.6123   14.6377 C   0  0  0  0  0  0  0  0  0  0  0  0
   15.6467    2.6607   13.3856 C   0  0  0  0  0  0  0  0  0  0  0  0
   16.2999    3.3657   12.4003 N   0  0  0  0  0  0  0  0  0  0  0  0
   15.7659    3.3214   11.0309 C   0  0  0  0  0  0  0  0  0  0  0  0
   15.0180    4.5536   10.7344 C   0  0  0  0  0  0  0  0  0  0  0  0
   13.8999    4.5887    9.9956 N   0  0  0  0  0  0  0  0  0  0  0  0
   13.5809    5.9479    9.9924 O   0  0  0  0  0  0  0  0  0  0  0  0
   14.5822    6.5689   10.6761 C   0  0  0  0  0  0  0  0  0  0  0  0
   14.5190    8.0126   10.8745 C   0  0  0  0  0  0  0  0  0  0  0  0
   14.7170    8.8489    9.6220 C   0  0  0  0  0  0  0  0  0  0  0  0
   14.8950   10.3282    9.9539 C   0  0  0  0  0  0  0  0  0  0  0  0
   13.5658    8.7093    8.6551 C   0  0  0  0  0  0  0  0  0  0  0  0
   15.4722    5.7604   11.1752 N   0  0  0  0  0  0  0  0  0  0  0  0
   17.4675    4.0772   12.6644 C   0  0  0  0  0  0  0  0  0  0  0  0
   18.1621    4.6112   11.7953 O   0  0  0  0  0  0  0  0  0  0  0  0
  1  2  1  0
  2  3  2  0
  3  4  1  0
  3  5  1  0
  5  6  2  0
  6  7  1  0
  7  8  1  0
  8  9  1  0
  9 10  2  0
 10 11  1  0
 11 12  1  0
 12 13  1  0
 13 14  1  0
 14 15  1  0
 14 16  1  0
 12 17  2  0
  7 18  1  0
 18 19  2  0
 18  2  1  0
 17  9  1  0
M  END
>  <HIPPO ID>  (101) 
35424

>  <ref_url>  (101) 
None

>  <ref_pdb>  (101) 
c0300a

>  <inchikey>  (101) 
NHHPFWDGHSIVLB-UHFFFAOYSA-N

>  <original SMILES>  (101) 
Cc1c(Br)ccn(Cc2noc(CC(C)C)n2)c1=O

>  <generation_date>  (101) 
None

>  <tags>  (101) 
[]

>  <ref_mols>  (101) 
c0316a,c1091a

>  <alias>  (101) 
None

>  <original ID>  (101) 
NHHPFWDGHSIVLB-UHFFFAOYSA-N

>  <exports>  (101) 
['/opt/xchem-fragalysis-2/maxwin/CHIKV_HIPPO/hippo_prod/CHIKV_prod11c_recipes/Recipe_1GJWBFH_poses.sdf', '/opt/xchem-fragalysis-2/maxwin/CHIKV_HIPPO/hippo_prod/CHIKV_prod11c_recipes/Recipe_1GJXK8G_poses.sdf', '/opt/xchem-fragalysis-2/maxwin/CHIKV_HIPPO/hippo_prod/CHIKV_prod11c_recipes/Recipe_1GJXW46_poses.sdf']

>  <method>  (101) 
None

>  <submitter_email>  (101) 
None

>  <submitter_name>  (101) 
None

$$$$
FIKQSZOCVPTCTI-UHFFFAOYSA-N
     RDKit          3D

 19 20  0  0  0  0  0  0  0  0999 V2000
   14.8430   10.3170    9.8830 C   0  0  0  0  0  0  0  0  0  0  0  0
   14.6238    8.8415    9.5605 C   0  0  0  0  0  0  0  0  0  0  0  0
   13.4177    8.7051    8.6559 C   0  0  0  0  0  0  0  0  0  0  0  0
   14.5005    8.0094   10.8266 C   0  0  0  0  0  0  0  0  0  0  0  0
   14.5538    6.5624   10.6439 C   0  0  0  0  0  0  0  0  0  0  0  0
   15.4395    5.7543   11.1552 N   0  0  0  0  0  0  0  0  0  0  0  0
   14.9827    4.5456   10.7231 C   0  0  0  0  0  0  0  0  0  0  0  0
   15.7328    3.3142   11.0179 C   0  0  0  0  0  0  0  0  0  0  0  0
   16.2768    3.3614   12.3844 N   0  0  0  0  0  0  0  0  0  0  0  0
   15.6293    2.6630   13.3801 C   0  0  0  0  0  0  0  0  0  0  0  0
   16.0789    2.6254   14.6335 C   0  0  0  0  0  0  0  0  0  0  0  0
   17.2077    3.4285   15.0123 C   0  0  0  0  0  0  0  0  0  0  0  0
   17.6493    3.3845   16.8304 Br  0  0  0  0  0  0  0  0  0  0  0  0
   17.8241    4.1885   14.0940 C   0  0  0  0  0  0  0  0  0  0  0  0
   18.9946    5.3722   14.5194 Cl  0  0  0  0  0  0  0  0  0  0  0  0
   17.4459    4.0804   12.6396 C   0  0  0  0  0  0  0  0  0  0  0  0
   18.1363    4.6040   11.7600 O   0  0  0  0  0  0  0  0  0  0  0  0
   13.8598    4.5768    9.9934 N   0  0  0  0  0  0  0  0  0  0  0  0
   13.5466    5.9370    9.9744 O   0  0  0  0  0  0  0  0  0  0  0  0
  1  2  1  0
  2  3  1  0
  2  4  1  0
  4  5  1  0
  5  6  2  0
  6  7  1  0
  7  8  1  0
  8  9  1  0
  9 10  1  0
 10 11  2  0
 11 12  1  0
 12 13  1  0
 12 14  2  0
 14 15  1  0
 14 16  1  0
 16 17  2  0
  7 18  2  0
 18 19  1  0
 19  5  1  0
 16  9  1  0
M  END
>  <HIPPO ID>  (102) 
35440

>  <ref_url>  (102) 
None

>  <ref_pdb>  (102) 
c0300a

>  <inchikey>  (102) 
FIKQSZOCVPTCTI-UHFFFAOYSA-N

>  <original SMILES>  (102) 
CC(C)Cc1nc(Cn2ccc(Br)c(Cl)c2=O)no1

>  <generation_date>  (102) 
None

>  <tags>  (102) 
[]

>  <ref_mols>  (102) 
c0316a,c1091a

>  <alias>  (102) 
None

>  <original ID>  (102) 
FIKQSZOCVPTCTI-UHFFFAOYSA-N

>  <exports>  (102) 
['/opt/xchem-fragalysis-2/maxwin/CHIKV_HIPPO/hippo_prod/CHIKV_prod11c_recipes/Recipe_1GJWBFH_poses.sdf', '/opt/xchem-fragalysis-2/maxwin/CHIKV_HIPPO/hippo_prod/CHIKV_prod11c_recipes/Recipe_1GJXK8G_poses.sdf', '/opt/xchem-fragalysis-2/maxwin/CHIKV_HIPPO/hippo_prod/CHIKV_prod11c_recipes/Recipe_1GJXW46_poses.sdf']

>  <method>  (102) 
None

>  <submitter_email>  (102) 
None

>  <submitter_name>  (102) 
None

$$$$
VCMAUEGDAYMDPQ-UHFFFAOYSA-N
     RDKit          3D

 19 20  0  0  0  0  0  0  0  0999 V2000
   14.6556   10.5341   10.3218 C   0  0  0  0  0  0  0  0  0  0  0  0
   14.2027    9.1376    9.8901 C   0  0  0  0  0  0  0  0  0  0  0  0
   14.6945    8.9647    8.5116 C   0  0  0  0  0  0  0  0  0  0  0  0
   14.7356    8.1182   10.8555 C   0  0  0  0  0  0  0  0  0  0  0  0
   14.4105    6.6932   10.7529 C   0  0  0  0  0  0  0  0  0  0  0  0
   15.0568    5.7792   11.4268 N   0  0  0  0  0  0  0  0  0  0  0  0
   14.7143    4.6385   10.7709 C   0  0  0  0  0  0  0  0  0  0  0  0
   15.4706    3.3809   11.0103 C   0  0  0  0  0  0  0  0  0  0  0  0
   16.1339    3.4033   12.3312 N   0  0  0  0  0  0  0  0  0  0  0  0
   15.5732    2.6944   13.3704 C   0  0  0  0  0  0  0  0  0  0  0  0
   16.1106    2.6607   14.5888 C   0  0  0  0  0  0  0  0  0  0  0  0
   17.2599    3.4652   14.8843 C   0  0  0  0  0  0  0  0  0  0  0  0
   17.8617    3.4255   16.6567 Br  0  0  0  0  0  0  0  0  0  0  0  0
   17.8240    4.2437   13.9429 C   0  0  0  0  0  0  0  0  0  0  0  0
   18.8390    5.1595   14.1696 N   0  0  0  0  0  0  0  0  0  0  0  0
   17.3147    4.1160   12.5092 C   0  0  0  0  0  0  0  0  0  0  0  0
   17.9685    4.6444   11.6029 O   0  0  0  0  0  0  0  0  0  0  0  0
   13.7841    4.7958    9.8136 N   0  0  0  0  0  0  0  0  0  0  0  0
   13.5770    6.1931    9.8032 O   0  0  0  0  0  0  0  0  0  0  0  0
  1  2  1  0
  2  3  1  0
  2  4  1  0
  4  5  1  0
  5  6  2  0
  6  7  1  0
  7  8  1  0
  8  9  1  0
  9 10  1  0
 10 11  2  0
 11 12  1  0
 12 13  1  0
 12 14  2  0
 14 15  1  0
 14 16  1  0
 16 17  2  0
  7 18  2  0
 18 19  1  0
 19  5  1  0
 16  9  1  0
M  END
>  <HIPPO ID>  (103) 
35441

>  <ref_url>  (103) 
None

>  <ref_pdb>  (103) 
c0300a

>  <inchikey>  (103) 
VCMAUEGDAYMDPQ-UHFFFAOYSA-N

>  <original SMILES>  (103) 
CC(C)Cc1nc(Cn2ccc(Br)c(N)c2=O)no1

>  <generation_date>  (103) 
None

>  <tags>  (103) 
[]

>  <ref_mols>  (103) 
c0316a,c1091a

>  <alias>  (103) 
None

>  <original ID>  (103) 
VCMAUEGDAYMDPQ-UHFFFAOYSA-N

>  <exports>  (103) 
['/opt/xchem-fragalysis-2/maxwin/CHIKV_HIPPO/hippo_prod/CHIKV_prod11c_recipes/Recipe_1GJXK8G_poses.sdf', '/opt/xchem-fragalysis-2/maxwin/CHIKV_HIPPO/hippo_prod/CHIKV_prod11c_recipes/Recipe_1GJXW46_poses.sdf']

>  <method>  (103) 
None

>  <submitter_email>  (103) 
None

>  <submitter_name>  (103) 
None

$$$$
IGRSVZMCLIBAIM-UHFFFAOYSA-N
     RDKit          3D

 19 20  0  0  0  0  0  0  0  0999 V2000
   15.4588   10.0308    8.7768 C   0  0  0  0  0  0  0  0  0  0  0  0
   15.3971    8.7365    9.4963 C   0  0  0  0  0  0  0  0  0  0  0  0
   14.2995    8.8160   10.4920 C   0  0  0  0  0  0  0  0  0  0  0  0
   14.3400    7.7443   11.5441 C   0  0  0  0  0  0  0  0  0  0  0  0
   14.4720    6.4144   10.9904 C   0  0  0  0  0  0  0  0  0  0  0  0
   15.4524    5.6123   11.2545 N   0  0  0  0  0  0  0  0  0  0  0  0
   15.0245    4.4721   10.6648 C   0  0  0  0  0  0  0  0  0  0  0  0
   15.7791    3.2393   10.9110 C   0  0  0  0  0  0  0  0  0  0  0  0
   16.3451    3.2854   12.2767 N   0  0  0  0  0  0  0  0  0  0  0  0
   15.6724    2.6563   13.3019 C   0  0  0  0  0  0  0  0  0  0  0  0
   16.1159    2.6703   14.5582 C   0  0  0  0  0  0  0  0  0  0  0  0
   17.2607    3.4643   14.9031 C   0  0  0  0  0  0  0  0  0  0  0  0
   17.7378    3.4842   16.7129 Br  0  0  0  0  0  0  0  0  0  0  0  0
   17.8908    4.2130   13.9793 C   0  0  0  0  0  0  0  0  0  0  0  0
   18.8728    5.1540   14.2452 N   0  0  0  0  0  0  0  0  0  0  0  0
   17.5005    4.0212   12.5182 C   0  0  0  0  0  0  0  0  0  0  0  0
   18.2115    4.5339   11.6457 O   0  0  0  0  0  0  0  0  0  0  0  0
   13.8927    4.5659    9.9517 N   0  0  0  0  0  0  0  0  0  0  0  0
   13.5015    5.8948   10.1907 O   0  0  0  0  0  0  0  0  0  0  0  0
  1  2  1  0
  2  3  1  0
  3  4  1  0
  4  5  1  0
  5  6  2  0
  6  7  1  0
  7  8  1  0
  8  9  1  0
  9 10  1  0
 10 11  2  0
 11 12  1  0
 12 13  1  0
 12 14  2  0
 14 15  1  0
 14 16  1  0
 16 17  2  0
  7 18  2  0
 18 19  1  0
 19  5  1  0
 16  9  1  0
M  END
>  <HIPPO ID>  (104) 
35493

>  <ref_url>  (104) 
None

>  <ref_pdb>  (104) 
c0300a

>  <inchikey>  (104) 
IGRSVZMCLIBAIM-UHFFFAOYSA-N

>  <original SMILES>  (104) 
CCCCc1nc(Cn2ccc(Br)c(N)c2=O)no1

>  <generation_date>  (104) 
None

>  <tags>  (104) 
[]

>  <ref_mols>  (104) 
c0316a,c1091a

>  <alias>  (104) 
None

>  <original ID>  (104) 
IGRSVZMCLIBAIM-UHFFFAOYSA-N

>  <exports>  (104) 
['/opt/xchem-fragalysis-2/maxwin/CHIKV_HIPPO/hippo_prod/CHIKV_prod11c_recipes/Recipe_1GJXK8G_poses.sdf', '/opt/xchem-fragalysis-2/maxwin/CHIKV_HIPPO/hippo_prod/CHIKV_prod11c_recipes/Recipe_1GJXW46_poses.sdf']

>  <method>  (104) 
None

>  <submitter_email>  (104) 
None

>  <submitter_name>  (104) 
None

$$$$
GCYRYTOMWWQMFC-UHFFFAOYSA-N
     RDKit          3D

 19 20  0  0  0  0  0  0  0  0999 V2000
   14.9294   10.5064    9.2746 C   0  0  0  0  0  0  0  0  0  0  0  0
   14.9580    9.1502    9.8889 C   0  0  0  0  0  0  0  0  0  0  0  0
   13.7638    8.3573    9.4064 C   0  0  0  0  0  0  0  0  0  0  0  0
   13.4283    7.2817   10.4117 C   0  0  0  0  0  0  0  0  0  0  0  0
   14.1753    6.0571   10.2832 C   0  0  0  0  0  0  0  0  0  0  0  0
   15.0820    5.5722   11.0878 N   0  0  0  0  0  0  0  0  0  0  0  0
   15.1505    4.2960   10.6258 C   0  0  0  0  0  0  0  0  0  0  0  0
   15.9734    3.2534   11.2316 C   0  0  0  0  0  0  0  0  0  0  0  0
   16.3298    3.4898   12.6223 N   0  0  0  0  0  0  0  0  0  0  0  0
   15.6667    2.7847   13.6034 C   0  0  0  0  0  0  0  0  0  0  0  0
   16.0791    2.7959   14.8692 C   0  0  0  0  0  0  0  0  0  0  0  0
   17.2056    3.6036   15.2460 C   0  0  0  0  0  0  0  0  0  0  0  0
   17.6534    3.5452   17.0604 Br  0  0  0  0  0  0  0  0  0  0  0  0
   17.8489    4.3627   14.3389 C   0  0  0  0  0  0  0  0  0  0  0  0
   18.9353    5.3222   14.6931 C   0  0  0  0  0  0  0  0  0  0  0  0
   17.4626    4.2461   12.8894 C   0  0  0  0  0  0  0  0  0  0  0  0
   18.1388    4.7824   12.0070 O   0  0  0  0  0  0  0  0  0  0  0  0
   14.3980    4.0196    9.5523 N   0  0  0  0  0  0  0  0  0  0  0  0
   13.7190    5.1992    9.3424 O   0  0  0  0  0  0  0  0  0  0  0  0
  1  2  1  0
  2  3  1  0
  3  4  1  0
  4  5  1  0
  5  6  2  0
  6  7  1  0
  7  8  1  0
  8  9  1  0
  9 10  1  0
 10 11  2  0
 11 12  1  0
 12 13  1  0
 12 14  2  0
 14 15  1  0
 14 16  1  0
 16 17  2  0
  7 18  2  0
 18 19  1  0
 19  5  1  0
 16  9  1  0
M  END
>  <HIPPO ID>  (105) 
35502

>  <ref_url>  (105) 
None

>  <ref_pdb>  (105) 
c0300a

>  <inchikey>  (105) 
GCYRYTOMWWQMFC-UHFFFAOYSA-N

>  <original SMILES>  (105) 
CCCCc1nc(Cn2ccc(Br)c(C)c2=O)no1

>  <generation_date>  (105) 
None

>  <tags>  (105) 
[]

>  <ref_mols>  (105) 
c0316a,c1091a

>  <alias>  (105) 
None

>  <original ID>  (105) 
GCYRYTOMWWQMFC-UHFFFAOYSA-N

>  <exports>  (105) 
['/opt/xchem-fragalysis-2/maxwin/CHIKV_HIPPO/hippo_prod/CHIKV_prod11c_recipes/Recipe_1GJWBFH_poses.sdf', '/opt/xchem-fragalysis-2/maxwin/CHIKV_HIPPO/hippo_prod/CHIKV_prod11c_recipes/Recipe_1GJXK8G_poses.sdf', '/opt/xchem-fragalysis-2/maxwin/CHIKV_HIPPO/hippo_prod/CHIKV_prod11c_recipes/Recipe_1GJXW46_poses.sdf']

>  <method>  (105) 
None

>  <submitter_email>  (105) 
None

>  <submitter_name>  (105) 
None

$$$$
SLEYBXRTCYLYES-UHFFFAOYSA-N
     RDKit          3D

 19 20  0  0  0  0  0  0  0  0999 V2000
   12.9785    9.2941    8.7452 C   0  0  0  0  0  0  0  0  0  0  0  0
   14.2793    9.9028    9.2172 C   0  0  0  0  0  0  0  0  0  0  0  0
   15.1966    8.7973    9.6810 C   0  0  0  0  0  0  0  0  0  0  0  0
   14.6885    8.0871   10.9225 C   0  0  0  0  0  0  0  0  0  0  0  0
   14.6469    6.6357   10.7762 C   0  0  0  0  0  0  0  0  0  0  0  0
   15.4594    5.7724   11.3133 N   0  0  0  0  0  0  0  0  0  0  0  0
   14.9916    4.5997   10.7940 C   0  0  0  0  0  0  0  0  0  0  0  0
   15.7045    3.3345   11.0490 C   0  0  0  0  0  0  0  0  0  0  0  0
   16.2783    3.3470   12.4042 N   0  0  0  0  0  0  0  0  0  0  0  0
   15.6388    2.6452   13.4024 C   0  0  0  0  0  0  0  0  0  0  0  0
   16.1009    2.6010   14.6512 C   0  0  0  0  0  0  0  0  0  0  0  0
   17.2299    3.4068   15.0238 C   0  0  0  0  0  0  0  0  0  0  0  0
   17.6761    3.3696   16.8407 Br  0  0  0  0  0  0  0  0  0  0  0  0
   17.8388    4.1695   14.1026 C   0  0  0  0  0  0  0  0  0  0  0  0
   18.9975    5.3667   14.5234 Cl  0  0  0  0  0  0  0  0  0  0  0  0
   17.4532    4.0615   12.6505 C   0  0  0  0  0  0  0  0  0  0  0  0
   18.1373    4.5874   11.7670 O   0  0  0  0  0  0  0  0  0  0  0  0
   13.9144    4.7036   10.0038 N   0  0  0  0  0  0  0  0  0  0  0  0
   13.6708    6.0812   10.0014 O   0  0  0  0  0  0  0  0  0  0  0  0
  1  2  1  0
  2  3  1  0
  3  4  1  0
  4  5  1  0
  5  6  2  0
  6  7  1  0
  7  8  1  0
  8  9  1  0
  9 10  1  0
 10 11  2  0
 11 12  1  0
 12 13  1  0
 12 14  2  0
 14 15  1  0
 14 16  1  0
 16 17  2  0
  7 18  2  0
 18 19  1  0
 19  5  1  0
 16  9  1  0
M  END
>  <HIPPO ID>  (106) 
35504

>  <ref_url>  (106) 
None

>  <ref_pdb>  (106) 
c0300a

>  <inchikey>  (106) 
SLEYBXRTCYLYES-UHFFFAOYSA-N

>  <original SMILES>  (106) 
CCCCc1nc(Cn2ccc(Br)c(Cl)c2=O)no1

>  <generation_date>  (106) 
None

>  <tags>  (106) 
[]

>  <ref_mols>  (106) 
c0316a,c1091a

>  <alias>  (106) 
None

>  <original ID>  (106) 
SLEYBXRTCYLYES-UHFFFAOYSA-N

>  <exports>  (106) 
['/opt/xchem-fragalysis-2/maxwin/CHIKV_HIPPO/hippo_prod/CHIKV_prod11c_recipes/Recipe_1GJWBFH_poses.sdf', '/opt/xchem-fragalysis-2/maxwin/CHIKV_HIPPO/hippo_prod/CHIKV_prod11c_recipes/Recipe_1GJXK8G_poses.sdf', '/opt/xchem-fragalysis-2/maxwin/CHIKV_HIPPO/hippo_prod/CHIKV_prod11c_recipes/Recipe_1GJXW46_poses.sdf']

>  <method>  (106) 
None

>  <submitter_email>  (106) 
None

>  <submitter_name>  (106) 
None

$$$$
WJRSIOYLPCQSRN-UHFFFAOYSA-N
     RDKit          3D

 20 22  0  0  0  0  0  0  0  0999 V2000
   13.2262    8.2610    9.3053 C   0  0  0  0  0  0  0  0  0  0  0  0
   14.4550    8.0112   10.1747 C   0  0  0  0  0  0  0  0  0  0  0  0
   14.6457    6.5332   10.2217 C   0  0  0  0  0  0  0  0  0  0  0  0
   15.4639    5.8171   10.9603 N   0  0  0  0  0  0  0  0  0  0  0  0
   15.0672    4.5396   10.6534 C   0  0  0  0  0  0  0  0  0  0  0  0
   15.8056    3.3391   11.0712 C   0  0  0  0  0  0  0  0  0  0  0  0
   16.3419    3.4567   12.4220 N   0  0  0  0  0  0  0  0  0  0  0  0
   15.6752    2.8383   13.4615 C   0  0  0  0  0  0  0  0  0  0  0  0
   16.1623    2.8339   14.7036 C   0  0  0  0  0  0  0  0  0  0  0  0
   17.3929    3.5211   14.9819 C   0  0  0  0  0  0  0  0  0  0  0  0
   18.0141    3.4956   16.7356 Br  0  0  0  0  0  0  0  0  0  0  0  0
   18.0513    4.1562   14.0055 C   0  0  0  0  0  0  0  0  0  0  0  0
   17.5593    4.0966   12.6073 C   0  0  0  0  0  0  0  0  0  0  0  0
   18.2427    4.6025   11.7157 O   0  0  0  0  0  0  0  0  0  0  0  0
   14.0259    4.4455    9.8225 N   0  0  0  0  0  0  0  0  0  0  0  0
   13.7271    5.7625    9.5554 O   0  0  0  0  0  0  0  0  0  0  0  0
   14.5180    8.4719   11.6497 C   0  0  0  0  0  0  0  0  0  0  0  0
   14.7815    9.9847   11.6573 C   0  0  0  0  0  0  0  0  0  0  0  0
   15.0491   10.3039   10.1939 C   0  0  0  0  0  0  0  0  0  0  0  0
   15.4790    8.9597    9.5777 C   0  0  0  0  0  0  0  0  0  0  0  0
  1  2  1  0
  2  3  1  0
  3  4  2  0
  4  5  1  0
  5  6  1  0
  6  7  1  0
  7  8  1  0
  8  9  2  0
  9 10  1  0
 10 11  1  0
 10 12  2  0
 12 13  1  0
 13 14  2  0
  5 15  2  0
 15 16  1  0
  2 17  1  0
 17 18  1  0
 18 19  1  0
 19 20  1  0
 20  2  1  0
 16  3  1  0
 13  7  1  0
M  END
>  <HIPPO ID>  (107) 
35696

>  <ref_url>  (107) 
None

>  <ref_pdb>  (107) 
c0300a

>  <inchikey>  (107) 
WJRSIOYLPCQSRN-UHFFFAOYSA-N

>  <original SMILES>  (107) 
CC1(c2nc(Cn3ccc(Br)cc3=O)no2)CCCC1

>  <generation_date>  (107) 
None

>  <tags>  (107) 
[]

>  <ref_mols>  (107) 
c0316a,c1091a

>  <alias>  (107) 
None

>  <original ID>  (107) 
WJRSIOYLPCQSRN-UHFFFAOYSA-N

>  <exports>  (107) 
['/opt/xchem-fragalysis-2/maxwin/CHIKV_HIPPO/hippo_prod/CHIKV_prod11c_recipes/Recipe_1GJXK8G_poses.sdf', '/opt/xchem-fragalysis-2/maxwin/CHIKV_HIPPO/hippo_prod/CHIKV_prod11c_recipes/Recipe_1GJXW46_poses.sdf']

>  <method>  (107) 
None

>  <submitter_email>  (107) 
None

>  <submitter_name>  (107) 
None

$$$$
NJQNUQXOTLEDBF-UHFFFAOYSA-N
     RDKit          3D

 21 23  0  0  0  0  0  0  0  0999 V2000
   13.5408    8.0568    9.3954 C   0  0  0  0  0  0  0  0  0  0  0  0
   13.7237    7.2272   10.6810 C   0  0  0  0  0  0  0  0  0  0  0  0
   14.4446    6.0238   10.2704 C   0  0  0  0  0  0  0  0  0  0  0  0
   15.4155    5.4606   10.9259 N   0  0  0  0  0  0  0  0  0  0  0  0
   15.3247    4.2106   10.4412 C   0  0  0  0  0  0  0  0  0  0  0  0
   16.0903    3.1377   11.0307 C   0  0  0  0  0  0  0  0  0  0  0  0
   16.4491    3.3825   12.4204 N   0  0  0  0  0  0  0  0  0  0  0  0
   15.7433    2.7501   13.4202 C   0  0  0  0  0  0  0  0  0  0  0  0
   16.1342    2.8073   14.6924 C   0  0  0  0  0  0  0  0  0  0  0  0
   17.2703    3.6098   15.0559 C   0  0  0  0  0  0  0  0  0  0  0  0
   17.7220    3.6156   16.8712 Br  0  0  0  0  0  0  0  0  0  0  0  0
   17.9313    4.3484   14.1440 C   0  0  0  0  0  0  0  0  0  0  0  0
   18.9363    5.2610   14.4177 N   0  0  0  0  0  0  0  0  0  0  0  0
   17.5733    4.1478   12.6808 C   0  0  0  0  0  0  0  0  0  0  0  0
   18.2952    4.6457   11.8082 O   0  0  0  0  0  0  0  0  0  0  0  0
   14.4600    4.0063    9.4425 N   0  0  0  0  0  0  0  0  0  0  0  0
   13.8309    5.2326    9.3494 O   0  0  0  0  0  0  0  0  0  0  0  0
   14.5813    8.0275   11.6692 C   0  0  0  0  0  0  0  0  0  0  0  0
   14.2981    7.4955   13.0611 C   0  0  0  0  0  0  0  0  0  0  0  0
   12.9156    6.8601   13.0160 C   0  0  0  0  0  0  0  0  0  0  0  0
   12.5762    6.5902   11.5446 C   0  0  0  0  0  0  0  0  0  0  0  0
  1  2  1  0
  2  3  1  0
  3  4  2  0
  4  5  1  0
  5  6  1  0
  6  7  1  0
  7  8  1  0
  8  9  2  0
  9 10  1  0
 10 11  1  0
 10 12  2  0
 12 13  1  0
 12 14  1  0
 14 15  2  0
  5 16  2  0
 16 17  1  0
  2 18  1  0
 18 19  1  0
 19 20  1  0
 20 21  1  0
 21  2  1  0
 17  3  1  0
 14  7  1  0
M  END
>  <HIPPO ID>  (108) 
35751

>  <ref_url>  (108) 
None

>  <ref_pdb>  (108) 
c0300a

>  <inchikey>  (108) 
NJQNUQXOTLEDBF-UHFFFAOYSA-N

>  <original SMILES>  (108) 
CC1(c2nc(Cn3ccc(Br)c(N)c3=O)no2)CCCC1

>  <generation_date>  (108) 
None

>  <tags>  (108) 
[]

>  <ref_mols>  (108) 
c0316a,c1091a

>  <alias>  (108) 
None

>  <original ID>  (108) 
NJQNUQXOTLEDBF-UHFFFAOYSA-N

>  <exports>  (108) 
['/opt/xchem-fragalysis-2/maxwin/CHIKV_HIPPO/hippo_prod/CHIKV_prod11c_recipes/Recipe_1GJXK8G_poses.sdf', '/opt/xchem-fragalysis-2/maxwin/CHIKV_HIPPO/hippo_prod/CHIKV_prod11c_recipes/Recipe_1GJXW46_poses.sdf']

>  <method>  (108) 
None

>  <submitter_email>  (108) 
None

>  <submitter_name>  (108) 
None

$$$$
MUWFHYOONNLIAK-UHFFFAOYSA-N
     RDKit          3D

 21 23  0  0  0  0  0  0  0  0999 V2000
   18.9384    5.2855   14.6331 C   0  0  0  0  0  0  0  0  0  0  0  0
   17.8890    4.3016   14.2389 C   0  0  0  0  0  0  0  0  0  0  0  0
   17.2008    3.5639   15.1301 C   0  0  0  0  0  0  0  0  0  0  0  0
   17.5589    3.5495   16.9662 Br  0  0  0  0  0  0  0  0  0  0  0  0
   16.0808    2.7644   14.7196 C   0  0  0  0  0  0  0  0  0  0  0  0
   15.7276    2.7320   13.4369 C   0  0  0  0  0  0  0  0  0  0  0  0
   16.4594    3.3870   12.4718 N   0  0  0  0  0  0  0  0  0  0  0  0
   16.1400    3.1529   11.0691 C   0  0  0  0  0  0  0  0  0  0  0  0
   15.3692    4.2183   10.4706 C   0  0  0  0  0  0  0  0  0  0  0  0
   14.5123    4.0037    9.4659 N   0  0  0  0  0  0  0  0  0  0  0  0
   13.8646    5.2204    9.3719 O   0  0  0  0  0  0  0  0  0  0  0  0
   14.4618    6.0185   10.2976 C   0  0  0  0  0  0  0  0  0  0  0  0
   13.7291    7.2184   10.6979 C   0  0  0  0  0  0  0  0  0  0  0  0
   13.5515    8.0432    9.4087 C   0  0  0  0  0  0  0  0  0  0  0  0
   12.5728    6.5822   11.5475 C   0  0  0  0  0  0  0  0  0  0  0  0
   12.8931    6.8557   13.0224 C   0  0  0  0  0  0  0  0  0  0  0  0
   14.2739    7.4931   13.0838 C   0  0  0  0  0  0  0  0  0  0  0  0
   14.5736    8.0232   11.6945 C   0  0  0  0  0  0  0  0  0  0  0  0
   15.4391    5.4699   10.9557 N   0  0  0  0  0  0  0  0  0  0  0  0
   17.5791    4.1486   12.7757 C   0  0  0  0  0  0  0  0  0  0  0  0
   18.2935    4.6742   11.9175 O   0  0  0  0  0  0  0  0  0  0  0  0
  1  2  1  0
  2  3  2  0
  3  4  1  0
  3  5  1  0
  5  6  2  0
  6  7  1  0
  7  8  1  0
  8  9  1  0
  9 10  2  0
 10 11  1  0
 11 12  1  0
 12 13  1  0
 13 14  1  0
 13 15  1  0
 15 16  1  0
 16 17  1  0
 17 18  1  0
 12 19  2  0
  7 20  1  0
 20 21  2  0
 20  2  1  0
 19  9  1  0
 18 13  1  0
M  END
>  <HIPPO ID>  (109) 
35773

>  <ref_url>  (109) 
None

>  <ref_pdb>  (109) 
c0300a

>  <inchikey>  (109) 
MUWFHYOONNLIAK-UHFFFAOYSA-N

>  <original SMILES>  (109) 
Cc1c(Br)ccn(Cc2noc(C3(C)CCCC3)n2)c1=O

>  <generation_date>  (109) 
None

>  <tags>  (109) 
[]

>  <ref_mols>  (109) 
c0316a,c1091a

>  <alias>  (109) 
None

>  <original ID>  (109) 
MUWFHYOONNLIAK-UHFFFAOYSA-N

>  <exports>  (109) 
['/opt/xchem-fragalysis-2/maxwin/CHIKV_HIPPO/hippo_prod/CHIKV_prod11c_recipes/Recipe_1GJXK8G_poses.sdf', '/opt/xchem-fragalysis-2/maxwin/CHIKV_HIPPO/hippo_prod/CHIKV_prod11c_recipes/Recipe_1GJXW46_poses.sdf']

>  <method>  (109) 
None

>  <submitter_email>  (109) 
None

>  <submitter_name>  (109) 
None

$$$$
MELUHIUKOCZYJI-UHFFFAOYSA-N
     RDKit          3D

 21 21  0  0  0  0  0  0  0  0999 V2000
   13.4974    6.0897   10.5024 C   0  0  0  0  0  0  0  0  0  0  0  0
   13.7318    7.0693   11.5073 O   0  0  0  0  0  0  0  0  0  0  0  0
   14.5704    8.0984   11.1914 C   0  0  0  0  0  0  0  0  0  0  0  0
   15.1508    8.3295    9.9600 C   0  0  0  0  0  0  0  0  0  0  0  0
   16.0509    9.3822    9.7915 C   0  0  0  0  0  0  0  0  0  0  0  0
   16.2846   10.2961   10.8188 C   0  0  0  0  0  0  0  0  0  0  0  0
   17.3801   11.1761   10.6453 N   0  0  0  0  0  0  0  0  0  0  0  0
   17.9275   12.0287   11.5889 C   0  0  0  0  0  0  0  0  0  0  0  0
   17.5002   12.3003   12.7024 O   0  0  0  0  0  0  0  0  0  0  0  0
   19.2544   12.6913   11.2152 C   0  0  0  0  0  0  0  0  0  0  0  0
   19.4411   13.8789   11.3997 O   0  0  0  0  0  0  0  0  0  0  0  0
   20.1421   11.7819   10.7794 O   0  0  0  0  0  0  0  0  0  0  0  0
   21.5558   12.1239   10.8323 C   0  0  0  0  0  0  0  0  0  0  0  0
   21.9284   13.4938   10.2451 C   0  0  0  0  0  0  0  0  0  0  0  0
   22.0543   12.0118   12.2730 C   0  0  0  0  0  0  0  0  0  0  0  0
   22.2420   11.0418   10.0299 C   0  0  0  0  0  0  0  0  0  0  0  0
   15.4609   10.2228   11.9485 C   0  0  0  0  0  0  0  0  0  0  0  0
   15.1837   11.2930   12.8055 N   0  0  0  0  0  0  0  0  0  0  0  0
   14.5703   12.2164   12.2291 N   0  0  0  0  0  4  0  0  0  0  0  0
   13.9938   13.0431   11.6997 N   0  0  0  0  0  2  0  0  0  0  0  0
   14.7598    9.0418   12.1940 C   0  0  0  0  0  0  0  0  0  0  0  0
  1  2  1  0
  2  3  1  0
  3  4  2  0
  4  5  1  0
  5  6  2  0
  6  7  1  0
  7  8  1  0
  8  9  2  0
  8 10  1  0
 10 11  2  0
 10 12  1  0
 12 13  1  0
 13 14  1  0
 13 15  1  0
 13 16  1  0
  6 17  1  0
 17 18  1  0
 18 19  2  0
 19 20  2  0
 17 21  2  0
 21  3  1  0
M  CHG  2  19   1  20  -1
M  END
>  <HIPPO ID>  (110) 
40603

>  <ref_url>  (110) 
None

>  <ref_pdb>  (110) 
c0270a

>  <inchikey>  (110) 
MELUHIUKOCZYJI-UHFFFAOYSA-N

>  <original SMILES>  (110) 
COc1ccc(NC(=O)C(=O)OC(C)(C)C)c(N=[N+]=[N-])c1

>  <generation_date>  (110) 
None

>  <tags>  (110) 
[]

>  <ref_mols>  (110) 
c0935a,c1353a

>  <alias>  (110) 
None

>  <original ID>  (110) 
MELUHIUKOCZYJI-UHFFFAOYSA-N

>  <exports>  (110) 
['/opt/xchem-fragalysis-2/maxwin/CHIKV_HIPPO/hippo_prod/CHIKV_prod11c_recipes/Recipe_1GJWBFH_poses.sdf', '/opt/xchem-fragalysis-2/maxwin/CHIKV_HIPPO/hippo_prod/CHIKV_prod11c_recipes/Recipe_1GJXK8G_poses.sdf', '/opt/xchem-fragalysis-2/maxwin/CHIKV_HIPPO/hippo_prod/CHIKV_prod11c_recipes/Recipe_1GJXW46_poses.sdf']

>  <method>  (110) 
None

>  <submitter_email>  (110) 
None

>  <submitter_name>  (110) 
None

$$$$
QFWCCAFJHGWTNF-UHFFFAOYSA-N
     RDKit          3D

 21 21  0  0  0  0  0  0  0  0999 V2000
   13.3113   13.0106   11.3319 C   0  0  0  0  0  0  0  0  0  0  0  0
   13.8984   12.4698   10.1719 O   0  0  0  0  0  0  0  0  0  0  0  0
   14.8869   11.5276   10.4764 C   0  0  0  0  0  0  0  0  0  0  0  0
   16.1623   12.2277   10.9182 C   0  0  0  0  0  0  0  0  0  0  0  0
   16.1450   13.2440   11.6171 O   0  0  0  0  0  0  0  0  0  0  0  0
   17.3646   11.7206   10.3534 N   0  0  0  0  0  0  0  0  0  0  0  0
   18.6172   12.1868   10.8216 O   0  0  0  0  0  0  0  0  0  0  0  0
   18.5080   12.4881   12.2210 C   0  0  0  0  0  0  0  0  0  0  0  0
   17.4493   11.5267   12.9627 C   0  0  0  0  0  0  0  0  0  0  0  0
   16.9252   11.8012   14.0308 O   0  0  0  0  0  0  0  0  0  0  0  0
   17.2036   10.3777   12.2111 N   0  0  0  0  0  0  0  0  0  0  0  0
   16.1947    9.3966   12.1971 C   0  0  0  0  0  0  0  0  0  0  0  0
   15.4499    9.1112   13.3184 C   0  0  0  0  0  0  0  0  0  0  0  0
   14.4376    8.1474   13.2442 C   0  0  0  0  0  0  0  0  0  0  0  0
   13.4800    7.9675   14.8715 Br  0  0  0  0  0  0  0  0  0  0  0  0
   14.1489    7.4931   12.0302 C   0  0  0  0  0  0  0  0  0  0  0  0
   13.1613    6.6162   11.6874 O   0  0  0  0  0  0  0  0  0  0  0  0
   12.2321    6.1287   12.6316 C   0  0  0  0  0  0  0  0  0  0  0  0
   14.8970    7.8176   10.8948 C   0  0  0  0  0  0  0  0  0  0  0  0
   15.9401    8.7299   10.9597 C   0  0  0  0  0  0  0  0  0  0  0  0
   16.5269    9.1471    9.7482 N   0  0  0  0  0  0  0  0  0  0  0  0
  1  2  1  0
  2  3  1  0
  3  4  1  0
  4  5  2  0
  4  6  1  0
  6  7  1  0
  7  8  1  0
  8  9  1  0
  9 10  2  0
  9 11  1  0
 11 12  1  0
 12 13  2  0
 13 14  1  0
 14 15  1  0
 14 16  2  0
 16 17  1  0
 17 18  1  0
 16 19  1  0
 19 20  2  0
 20 21  1  0
 20 12  1  0
M  END
>  <HIPPO ID>  (111) 
40624

>  <ref_url>  (111) 
None

>  <ref_pdb>  (111) 
c0270a

>  <inchikey>  (111) 
QFWCCAFJHGWTNF-UHFFFAOYSA-N

>  <original SMILES>  (111) 
COCC(=O)NOCC(=O)Nc1cc(Br)c(OC)cc1N

>  <generation_date>  (111) 
None

>  <tags>  (111) 
[]

>  <ref_mols>  (111) 
c0935a,c1353a

>  <alias>  (111) 
None

>  <original ID>  (111) 
QFWCCAFJHGWTNF-UHFFFAOYSA-N

>  <exports>  (111) 
['/opt/xchem-fragalysis-2/maxwin/CHIKV_HIPPO/hippo_prod/CHIKV_prod11c_recipes/Recipe_1GJWBFH_poses.sdf', '/opt/xchem-fragalysis-2/maxwin/CHIKV_HIPPO/hippo_prod/CHIKV_prod11c_recipes/Recipe_1GJXK8G_poses.sdf', '/opt/xchem-fragalysis-2/maxwin/CHIKV_HIPPO/hippo_prod/CHIKV_prod11c_recipes/Recipe_1GJXW46_poses.sdf']

>  <method>  (111) 
None

>  <submitter_email>  (111) 
None

>  <submitter_name>  (111) 
None

$$$$
QBGAKTUPPLJLOM-UHFFFAOYSA-N
     RDKit          3D

 21 22  0  0  0  0  0  0  0  0999 V2000
   22.1821   10.9574   10.0492 C   0  0  0  0  0  0  0  0  0  0  0  0
   21.5871   12.1263   10.7978 C   0  0  0  0  0  0  0  0  0  0  0  0
   22.1263   12.0984   12.2290 C   0  0  0  0  0  0  0  0  0  0  0  0
   21.9943   13.4382   10.1075 C   0  0  0  0  0  0  0  0  0  0  0  0
   20.1634   11.8352   10.8081 O   0  0  0  0  0  0  0  0  0  0  0  0
   19.3202   12.7961   11.2077 C   0  0  0  0  0  0  0  0  0  0  0  0
   19.5489   13.9848   11.3252 O   0  0  0  0  0  0  0  0  0  0  0  0
   17.9792   12.1990   11.6256 C   0  0  0  0  0  0  0  0  0  0  0  0
   17.5336   12.5831   12.7017 O   0  0  0  0  0  0  0  0  0  0  0  0
   17.4135   11.2766   10.7650 N   0  0  0  0  0  0  0  0  0  0  0  0
   16.3210   10.4210   11.0544 C   0  0  0  0  0  0  0  0  0  0  0  0
   16.0601    9.4165   10.1238 C   0  0  0  0  0  0  0  0  0  0  0  0
   15.1719    8.3977   10.4423 C   0  0  0  0  0  0  0  0  0  0  0  0
   14.6518    8.2823   11.7192 C   0  0  0  0  0  0  0  0  0  0  0  0
   14.8200    9.3339   12.6015 C   0  0  0  0  0  0  0  0  0  0  0  0
   15.5550   10.4614   12.2356 C   0  0  0  0  0  0  0  0  0  0  0  0
   15.2002   11.6707   12.8531 N   0  0  0  0  0  0  0  0  0  0  0  0
   13.8547    7.2457   12.1290 O   0  0  0  0  0  0  0  0  0  0  0  0
   13.7307    6.2214   11.1389 C   0  0  0  0  0  0  0  0  0  0  0  0
   13.6458    6.8165    9.7525 C   0  0  0  0  0  0  0  0  0  0  0  0
   14.8410    7.5330    9.4541 O   0  0  0  0  0  0  0  0  0  0  0  0
  1  2  1  0
  2  3  1  0
  2  4  1  0
  2  5  1  0
  5  6  1  0
  6  7  2  0
  6  8  1  0
  8  9  2  0
  8 10  1  0
 10 11  1  0
 11 12  2  0
 12 13  1  0
 13 14  2  0
 14 15  1  0
 15 16  2  0
 16 17  1  0
 14 18  1  0
 18 19  1  0
 19 20  1  0
 20 21  1  0
 16 11  1  0
 21 13  1  0
M  END
>  <HIPPO ID>  (112) 
40814

>  <ref_url>  (112) 
None

>  <ref_pdb>  (112) 
c0270a

>  <inchikey>  (112) 
QBGAKTUPPLJLOM-UHFFFAOYSA-N

>  <original SMILES>  (112) 
CC(C)(C)OC(=O)C(=O)Nc1cc2c(cc1N)OCCO2

>  <generation_date>  (112) 
None

>  <tags>  (112) 
[]

>  <ref_mols>  (112) 
c0935a,c1353a

>  <alias>  (112) 
None

>  <original ID>  (112) 
QBGAKTUPPLJLOM-UHFFFAOYSA-N

>  <exports>  (112) 
['/opt/xchem-fragalysis-2/maxwin/CHIKV_HIPPO/hippo_prod/CHIKV_prod11c_recipes/Recipe_1GJWBFH_poses.sdf', '/opt/xchem-fragalysis-2/maxwin/CHIKV_HIPPO/hippo_prod/CHIKV_prod11c_recipes/Recipe_1GJXK8G_poses.sdf', '/opt/xchem-fragalysis-2/maxwin/CHIKV_HIPPO/hippo_prod/CHIKV_prod11c_recipes/Recipe_1GJXW46_poses.sdf']

>  <method>  (112) 
None

>  <submitter_email>  (112) 
None

>  <submitter_name>  (112) 
None

$$$$
VZEQNMOPRLHGLE-UHFFFAOYSA-N
     RDKit          3D

 22 23  0  0  0  0  0  0  0  0999 V2000
   15.0959   12.8666   12.5508 C   0  0  0  0  0  0  0  0  0  0  0  0
   16.4181   13.1670   13.0205 O   0  0  0  0  0  0  0  0  0  0  0  0
   17.2240   13.7366   12.0106 C   0  0  0  0  0  0  0  0  0  0  0  0
   18.7810   13.9822   11.9138 C   0  0  0  0  0  0  0  0  0  0  0  0
   19.2296   15.1321   11.8702 O   0  0  0  0  0  0  0  0  0  0  0  0
   19.6887   12.9797   11.6789 N   0  0  0  0  0  0  0  0  0  0  0  0
   19.4307   12.4162   10.4046 O   0  0  0  0  0  0  0  0  0  0  0  0
   19.1713   11.0542   10.5801 C   0  0  0  0  0  0  0  0  0  0  0  0
   17.8111   10.8272   11.2048 C   0  0  0  0  0  0  0  0  0  0  0  0
   17.5988   11.0913   12.3822 O   0  0  0  0  0  0  0  0  0  0  0  0
   16.8675   10.2659   10.4119 N   0  0  0  0  0  0  0  0  0  0  0  0
   15.8317    9.4361   10.8955 C   0  0  0  0  0  0  0  0  0  0  0  0
   15.5304    9.2037   12.2361 C   0  0  0  0  0  0  0  0  0  0  0  0
   14.6406    8.1895   12.5791 C   0  0  0  0  0  0  0  0  0  0  0  0
   14.0620    7.3924   11.5923 C   0  0  0  0  0  0  0  0  0  0  0  0
   14.3000    7.6730   10.2599 C   0  0  0  0  0  0  0  0  0  0  0  0
   15.1333    8.7338    9.9206 C   0  0  0  0  0  0  0  0  0  0  0  0
   15.3512    9.0419    8.5812 N   0  0  0  0  0  0  0  0  0  0  0  0
   13.1869    6.3730   11.8443 O   0  0  0  0  0  0  0  0  0  0  0  0
   12.6904    6.3891   13.1830 C   0  0  0  0  0  0  0  0  0  0  0  0
   13.7620    6.7851   14.1843 C   0  0  0  0  0  0  0  0  0  0  0  0
   14.3259    8.0673   13.9063 O   0  0  0  0  0  0  0  0  0  0  0  0
  1  2  1  0
  2  3  1  0
  3  4  1  0
  4  5  2  0
  4  6  1  0
  6  7  1  0
  7  8  1  0
  8  9  1  0
  9 10  2  0
  9 11  1  0
 11 12  1  0
 12 13  2  0
 13 14  1  0
 14 15  2  0
 15 16  1  0
 16 17  2  0
 17 18  1  0
 15 19  1  0
 19 20  1  0
 20 21  1  0
 21 22  1  0
 17 12  1  0
 22 14  1  0
M  END
>  <HIPPO ID>  (113) 
41359

>  <ref_url>  (113) 
None

>  <ref_pdb>  (113) 
c0270a

>  <inchikey>  (113) 
VZEQNMOPRLHGLE-UHFFFAOYSA-N

>  <original SMILES>  (113) 
COCC(=O)NOCC(=O)Nc1cc2c(cc1N)OCCO2

>  <generation_date>  (113) 
None

>  <tags>  (113) 
[]

>  <ref_mols>  (113) 
c0935a,c1353a

>  <alias>  (113) 
None

>  <original ID>  (113) 
VZEQNMOPRLHGLE-UHFFFAOYSA-N

>  <exports>  (113) 
['/opt/xchem-fragalysis-2/maxwin/CHIKV_HIPPO/hippo_prod/CHIKV_prod11c_recipes/Recipe_1GJWBFH_poses.sdf', '/opt/xchem-fragalysis-2/maxwin/CHIKV_HIPPO/hippo_prod/CHIKV_prod11c_recipes/Recipe_1GJXK8G_poses.sdf', '/opt/xchem-fragalysis-2/maxwin/CHIKV_HIPPO/hippo_prod/CHIKV_prod11c_recipes/Recipe_1GJXW46_poses.sdf']

>  <method>  (113) 
None

>  <submitter_email>  (113) 
None

>  <submitter_name>  (113) 
None

$$$$
XJQWQCNJWGSCQA-NSHDSACASA-N
     RDKit          3D

 23 24  0  0  0  0  0  0  0  0999 V2000
   13.1104    5.8471   10.5077 C   0  0  0  0  0  0  0  0  0  0  0  0
   13.3133    6.8242   11.5151 O   0  0  0  0  0  0  0  0  0  0  0  0
   14.2753    7.7588   11.2533 C   0  0  0  0  0  0  0  0  0  0  0  0
   14.6419    8.1398    9.9663 C   0  0  0  0  0  0  0  0  0  0  0  0
   15.6182    9.1041    9.7614 C   0  0  0  0  0  0  0  0  0  0  0  0
   16.0304    9.3871    8.4681 N   0  0  0  0  0  0  0  0  0  0  0  0
   16.3193    9.6130   10.8418 C   0  0  0  0  0  0  0  0  0  0  0  0
   17.5048   10.3205   10.5283 N   0  0  0  0  0  0  0  0  0  0  0  0
   18.1926   11.1028   11.4108 C   0  0  0  0  0  0  0  0  0  0  0  0
   17.7753   11.2757   12.5540 O   0  0  0  0  0  0  0  0  0  0  0  0
   19.3565   11.9108   10.8363 C   0  0  2  0  0  0  0  0  0  0  0  0
   20.7275   11.8195   11.4645 C   0  0  0  0  0  0  0  0  0  0  0  0
   18.9671   13.2733   10.7657 O   0  0  0  0  0  0  0  0  0  0  0  0
   18.5837   13.8504   12.0220 C   0  0  0  0  0  0  0  0  0  0  0  0
   17.0749   13.8338   12.3561 C   0  0  0  0  0  0  0  0  0  0  0  0
   16.1127   13.0737   11.6779 C   0  0  0  0  0  0  0  0  0  0  0  0
   14.7910   12.9099   12.0668 C   0  0  0  0  0  0  0  0  0  0  0  0
   14.3998   13.4748   13.2487 C   0  0  0  0  0  0  0  0  0  0  0  0
   15.2939   14.2745   13.9487 C   0  0  0  0  0  0  0  0  0  0  0  0
   16.6066   14.4723   13.4982 C   0  0  0  0  0  0  0  0  0  0  0  0
   15.8509    9.3617   12.1307 C   0  0  0  0  0  0  0  0  0  0  0  0
   14.8394    8.4336   12.3370 C   0  0  0  0  0  0  0  0  0  0  0  0
   14.2886    8.1347   14.1319 Br  0  0  0  0  0  0  0  0  0  0  0  0
  1  2  1  0
  2  3  1  0
  3  4  2  0
  4  5  1  0
  5  6  1  0
  5  7  2  0
  7  8  1  0
  8  9  1  0
  9 10  2  0
  9 11  1  0
 11 12  1  1
 11 13  1  0
 13 14  1  0
 14 15  1  0
 15 16  2  0
 16 17  1  0
 17 18  2  0
 18 19  1  0
 19 20  2  0
  7 21  1  0
 21 22  2  0
 22 23  1  0
 22  3  1  0
 20 15  1  0
M  END
>  <HIPPO ID>  (114) 
41842

>  <ref_url>  (114) 
None

>  <ref_pdb>  (114) 
c0270a

>  <inchikey>  (114) 
XJQWQCNJWGSCQA-NSHDSACASA-N

>  <original SMILES>  (114) 
COc1cc(N)c(NC(=O)[C@H](C)OCc2ccccc2)cc1Br

>  <generation_date>  (114) 
None

>  <tags>  (114) 
[]

>  <ref_mols>  (114) 
c0935a,c1353a

>  <alias>  (114) 
None

>  <original ID>  (114) 
XJQWQCNJWGSCQA-NSHDSACASA-N

>  <exports>  (114) 
['/opt/xchem-fragalysis-2/maxwin/CHIKV_HIPPO/hippo_prod/CHIKV_prod11c_recipes/Recipe_1GJWBFH_poses.sdf', '/opt/xchem-fragalysis-2/maxwin/CHIKV_HIPPO/hippo_prod/CHIKV_prod11c_recipes/Recipe_1GJXK8G_poses.sdf', '/opt/xchem-fragalysis-2/maxwin/CHIKV_HIPPO/hippo_prod/CHIKV_prod11c_recipes/Recipe_1GJXW46_poses.sdf']

>  <method>  (114) 
None

>  <submitter_email>  (114) 
None

>  <submitter_name>  (114) 
None

$$$$
XJQWQCNJWGSCQA-LLVKDONJSA-N
     RDKit          3D

 23 24  0  0  0  0  0  0  0  0999 V2000
   13.4198    5.7667   12.0505 C   0  0  0  0  0  0  0  0  0  0  0  0
   13.2569    6.9097   11.2312 O   0  0  0  0  0  0  0  0  0  0  0  0
   14.2882    7.8022   11.2299 C   0  0  0  0  0  0  0  0  0  0  0  0
   14.6813    8.2007    9.9561 C   0  0  0  0  0  0  0  0  0  0  0  0
   15.6575    9.1770    9.7674 C   0  0  0  0  0  0  0  0  0  0  0  0
   16.1009    9.4269    8.4795 N   0  0  0  0  0  0  0  0  0  0  0  0
   16.3163    9.7182   10.8635 C   0  0  0  0  0  0  0  0  0  0  0  0
   17.4919   10.4884   10.6118 N   0  0  0  0  0  0  0  0  0  0  0  0
   18.1533   11.1945   11.5718 C   0  0  0  0  0  0  0  0  0  0  0  0
   17.6410   11.3662   12.6851 O   0  0  0  0  0  0  0  0  0  0  0  0
   19.5116   11.8736   11.2723 C   0  0  1  0  0  0  0  0  0  0  0  0
   20.5436   11.0976   10.5102 C   0  0  0  0  0  0  0  0  0  0  0  0
   19.3118   13.1288   10.6658 O   0  0  0  0  0  0  0  0  0  0  0  0
   19.2056   14.1309   11.6794 C   0  0  0  0  0  0  0  0  0  0  0  0
   17.8373   14.2394   12.3654 C   0  0  0  0  0  0  0  0  0  0  0  0
   16.6587   13.5889   11.9513 C   0  0  0  0  0  0  0  0  0  0  0  0
   15.4337   13.6609   12.6149 C   0  0  0  0  0  0  0  0  0  0  0  0
   15.3491   14.4622   13.7282 C   0  0  0  0  0  0  0  0  0  0  0  0
   16.4783   15.1709   14.1431 C   0  0  0  0  0  0  0  0  0  0  0  0
   17.7067   15.0625   13.4745 C   0  0  0  0  0  0  0  0  0  0  0  0
   15.8325    9.4079   12.1407 C   0  0  0  0  0  0  0  0  0  0  0  0
   14.8335    8.4524   12.3331 C   0  0  0  0  0  0  0  0  0  0  0  0
   14.2642    8.2034   14.1314 Br  0  0  0  0  0  0  0  0  0  0  0  0
  1  2  1  0
  2  3  1  0
  3  4  2  0
  4  5  1  0
  5  6  1  0
  5  7  2  0
  7  8  1  0
  8  9  1  0
  9 10  2  0
  9 11  1  0
 11 12  1  6
 11 13  1  0
 13 14  1  0
 14 15  1  0
 15 16  2  0
 16 17  1  0
 17 18  2  0
 18 19  1  0
 19 20  2  0
  7 21  1  0
 21 22  2  0
 22 23  1  0
 22  3  1  0
 20 15  1  0
M  END
>  <HIPPO ID>  (115) 
41843

>  <ref_url>  (115) 
None

>  <ref_pdb>  (115) 
c0270a

>  <inchikey>  (115) 
XJQWQCNJWGSCQA-LLVKDONJSA-N

>  <original SMILES>  (115) 
COc1cc(N)c(NC(=O)[C@@H](C)OCc2ccccc2)cc1Br

>  <generation_date>  (115) 
None

>  <tags>  (115) 
[]

>  <ref_mols>  (115) 
c0935a,c1353a

>  <alias>  (115) 
None

>  <original ID>  (115) 
XJQWQCNJWGSCQA-LLVKDONJSA-N

>  <exports>  (115) 
['/opt/xchem-fragalysis-2/maxwin/CHIKV_HIPPO/hippo_prod/CHIKV_prod11c_recipes/Recipe_1GJWBFH_poses.sdf', '/opt/xchem-fragalysis-2/maxwin/CHIKV_HIPPO/hippo_prod/CHIKV_prod11c_recipes/Recipe_1GJXK8G_poses.sdf', '/opt/xchem-fragalysis-2/maxwin/CHIKV_HIPPO/hippo_prod/CHIKV_prod11c_recipes/Recipe_1GJXW46_poses.sdf']

>  <method>  (115) 
None

>  <submitter_email>  (115) 
None

>  <submitter_name>  (115) 
None

$$$$
ODFOLLXLPAODBO-LBPRGKRZSA-N
     RDKit          3D

 24 25  0  0  0  0  0  0  0  0999 V2000
   13.5444    6.3897   10.3082 C   0  0  0  0  0  0  0  0  0  0  0  0
   13.8319    7.2833   11.3795 O   0  0  0  0  0  0  0  0  0  0  0  0
   14.6988    8.3052   11.1227 C   0  0  0  0  0  0  0  0  0  0  0  0
   15.3816    8.5213    9.9473 C   0  0  0  0  0  0  0  0  0  0  0  0
   16.3255    9.5489    9.8618 C   0  0  0  0  0  0  0  0  0  0  0  0
   16.4978   10.4854   10.8829 C   0  0  0  0  0  0  0  0  0  0  0  0
   17.6304   11.3464   10.7834 N   0  0  0  0  0  0  0  0  0  0  0  0
   17.8803   12.5205   11.4705 C   0  0  0  0  0  0  0  0  0  0  0  0
   17.0244   13.1783   12.0555 O   0  0  0  0  0  0  0  0  0  0  0  0
   19.3538   13.0134   11.4723 C   0  0  2  0  0  0  0  0  0  0  0  0
   19.4492   14.2731   12.3326 C   0  0  0  0  0  0  0  0  0  0  0  0
   19.8955   13.2584   10.1734 O   0  0  0  0  0  0  0  0  0  0  0  0
   21.2705   13.7228   10.1457 C   0  0  0  0  0  0  0  0  0  0  0  0
   22.1265   12.6898   10.7892 C   0  0  0  0  0  0  0  0  0  0  0  0
   21.9617   11.4033   10.3329 C   0  0  0  0  0  0  0  0  0  0  0  0
   22.1817   10.4034   11.2238 C   0  0  0  0  0  0  0  0  0  0  0  0
   22.7539   10.6217   12.4774 C   0  0  0  0  0  0  0  0  0  0  0  0
   23.1423   11.8928   12.8315 C   0  0  0  0  0  0  0  0  0  0  0  0
   22.8046   12.9410   11.9896 C   0  0  0  0  0  0  0  0  0  0  0  0
   15.5962   10.4153   11.9538 C   0  0  0  0  0  0  0  0  0  0  0  0
   15.3200   11.4572   12.8405 N   0  0  0  0  0  0  0  0  0  0  0  0
   14.5539   12.2964   12.3066 N   0  0  0  0  0  4  0  0  0  0  0  0
   13.8363   13.0288   11.8098 N   0  0  0  0  0  2  0  0  0  0  0  0
   14.8434    9.2469   12.1327 C   0  0  0  0  0  0  0  0  0  0  0  0
  1  2  1  0
  2  3  1  0
  3  4  2  0
  4  5  1  0
  5  6  2  0
  6  7  1  0
  7  8  1  0
  8  9  2  0
  8 10  1  0
 10 11  1  1
 10 12  1  0
 12 13  1  0
 13 14  1  0
 14 15  2  0
 15 16  1  0
 16 17  2  0
 17 18  1  0
 18 19  2  0
  6 20  1  0
 20 21  1  0
 21 22  2  0
 22 23  2  0
 20 24  2  0
 24  3  1  0
 19 14  1  0
M  CHG  2  22   1  23  -1
M  END
>  <HIPPO ID>  (116) 
42536

>  <ref_url>  (116) 
None

>  <ref_pdb>  (116) 
c0270a

>  <inchikey>  (116) 
ODFOLLXLPAODBO-LBPRGKRZSA-N

>  <original SMILES>  (116) 
COc1ccc(NC(=O)[C@H](C)OCc2ccccc2)c(N=[N+]=[N-])c1

>  <generation_date>  (116) 
None

>  <tags>  (116) 
[]

>  <ref_mols>  (116) 
c0935a,c1353a

>  <alias>  (116) 
None

>  <original ID>  (116) 
ODFOLLXLPAODBO-LBPRGKRZSA-N

>  <exports>  (116) 
['/opt/xchem-fragalysis-2/maxwin/CHIKV_HIPPO/hippo_prod/CHIKV_prod11c_recipes/Recipe_1GJWBFH_poses.sdf', '/opt/xchem-fragalysis-2/maxwin/CHIKV_HIPPO/hippo_prod/CHIKV_prod11c_recipes/Recipe_1GJXK8G_poses.sdf', '/opt/xchem-fragalysis-2/maxwin/CHIKV_HIPPO/hippo_prod/CHIKV_prod11c_recipes/Recipe_1GJXW46_poses.sdf']

>  <method>  (116) 
None

>  <submitter_email>  (116) 
None

>  <submitter_name>  (116) 
None

$$$$
ODFOLLXLPAODBO-GFCCVEGCSA-N
     RDKit          3D

 24 25  0  0  0  0  0  0  0  0999 V2000
   13.2366    8.7570    8.5935 C   0  0  0  0  0  0  0  0  0  0  0  0
   13.5877    8.2848    9.8820 O   0  0  0  0  0  0  0  0  0  0  0  0
   14.5690    9.1088   10.3366 C   0  0  0  0  0  0  0  0  0  0  0  0
   15.7869    8.5415   10.4879 C   0  0  0  0  0  0  0  0  0  0  0  0
   16.8431    9.4117   10.5823 C   0  0  0  0  0  0  0  0  0  0  0  0
   16.7138   10.7584   10.8632 C   0  0  0  0  0  0  0  0  0  0  0  0
   17.9272   11.4360   10.9371 N   0  0  0  0  0  0  0  0  0  0  0  0
   18.2124   12.5890   11.6122 C   0  0  0  0  0  0  0  0  0  0  0  0
   17.4564   13.1701   12.3811 O   0  0  0  0  0  0  0  0  0  0  0  0
   19.6458   13.0649   11.3103 C   0  0  1  0  0  0  0  0  0  0  0  0
   20.2295   13.6521   12.5827 C   0  0  0  0  0  0  0  0  0  0  0  0
   20.4053   11.9838   10.7384 O   0  0  0  0  0  0  0  0  0  0  0  0
   21.7808   12.3001   10.4580 C   0  0  0  0  0  0  0  0  0  0  0  0
   22.6303   12.0102   11.6635 C   0  0  0  0  0  0  0  0  0  0  0  0
   22.5242   10.7643   12.2682 C   0  0  0  0  0  0  0  0  0  0  0  0
   23.2121   10.4518   13.4434 C   0  0  0  0  0  0  0  0  0  0  0  0
   24.0301   11.4037   14.0279 C   0  0  0  0  0  0  0  0  0  0  0  0
   24.1751   12.6470   13.4171 C   0  0  0  0  0  0  0  0  0  0  0  0
   23.4888   12.9470   12.2357 C   0  0  0  0  0  0  0  0  0  0  0  0
   15.4475   11.2938   10.9337 C   0  0  0  0  0  0  0  0  0  0  0  0
   15.1518   12.6383   11.1091 N   0  0  0  0  0  0  0  0  0  0  0  0
   14.5602   12.8768   12.1691 N   0  0  0  0  0  4  0  0  0  0  0  0
   14.0069   13.0855   13.1389 N   0  0  0  0  0  2  0  0  0  0  0  0
   14.4224   10.4845   10.4948 C   0  0  0  0  0  0  0  0  0  0  0  0
  1  2  1  0
  2  3  1  0
  3  4  2  0
  4  5  1  0
  5  6  2  0
  6  7  1  0
  7  8  1  0
  8  9  2  0
  8 10  1  0
 10 11  1  1
 10 12  1  0
 12 13  1  0
 13 14  1  0
 14 15  2  0
 15 16  1  0
 16 17  2  0
 17 18  1  0
 18 19  2  0
  6 20  1  0
 20 21  1  0
 21 22  2  0
 22 23  2  0
 20 24  2  0
 24  3  1  0
 19 14  1  0
M  CHG  2  22   1  23  -1
M  END
>  <HIPPO ID>  (117) 
42537

>  <ref_url>  (117) 
None

>  <ref_pdb>  (117) 
c0270a

>  <inchikey>  (117) 
ODFOLLXLPAODBO-GFCCVEGCSA-N

>  <original SMILES>  (117) 
COc1ccc(NC(=O)[C@@H](C)OCc2ccccc2)c(N=[N+]=[N-])c1

>  <generation_date>  (117) 
None

>  <tags>  (117) 
[]

>  <ref_mols>  (117) 
c0935a,c1353a

>  <alias>  (117) 
None

>  <original ID>  (117) 
ODFOLLXLPAODBO-GFCCVEGCSA-N

>  <exports>  (117) 
['/opt/xchem-fragalysis-2/maxwin/CHIKV_HIPPO/hippo_prod/CHIKV_prod11c_recipes/Recipe_1GJWBFH_poses.sdf', '/opt/xchem-fragalysis-2/maxwin/CHIKV_HIPPO/hippo_prod/CHIKV_prod11c_recipes/Recipe_1GJXK8G_poses.sdf', '/opt/xchem-fragalysis-2/maxwin/CHIKV_HIPPO/hippo_prod/CHIKV_prod11c_recipes/Recipe_1GJXW46_poses.sdf']

>  <method>  (117) 
None

>  <submitter_email>  (117) 
None

>  <submitter_name>  (117) 
None

$$$$
CPSNXGOJRPNXRM-LLVKDONJSA-N
     RDKit          3D

 22 24  0  0  0  0  0  0  0  0999 V2000
   14.7698    0.7029   19.0861 C   0  0  0  0  0  0  0  0  0  0  0  0
   15.8031   -0.3349   18.7532 C   0  0  0  0  0  0  0  0  0  0  0  0
   15.6941   -1.6113   19.3070 C   0  0  0  0  0  0  0  0  0  0  0  0
   16.5987   -2.5960   18.9442 C   0  0  0  0  0  0  0  0  0  0  0  0
   17.5989   -2.4093   18.0591 N   0  0  0  0  0  0  0  0  0  0  0  0
   17.7007   -1.1620   17.5115 C   0  0  0  0  0  0  0  0  0  0  0  0
   18.9131   -0.9448   16.6405 C   0  0  0  0  0  0  0  0  0  0  0  0
   19.5399   -2.1841   16.2848 O   0  0  0  0  0  0  0  0  0  0  0  0
   16.8337   -0.1033   17.8359 C   0  0  0  0  0  0  0  0  0  0  0  0
   17.0419    1.2028   17.3274 N   0  0  0  0  0  0  0  0  0  0  0  0
   16.6287    1.4985   16.0307 C   0  0  0  0  0  0  0  0  0  0  0  0
   16.0824    0.6918   15.2954 O   0  0  0  0  0  0  0  0  0  0  0  0
   16.8908    2.9624   15.6624 C   0  0  2  0  0  0  0  0  0  0  0  0
   15.7274    3.8376   16.1576 C   0  0  0  0  0  0  0  0  0  0  0  0
   14.7644    3.9697   14.9662 C   0  0  0  0  0  0  0  0  0  0  0  0
   15.6600    3.7438   13.8191 C   0  0  0  0  0  0  0  0  0  0  0  0
   15.3846    4.0575   12.4556 C   0  0  0  0  0  0  0  0  0  0  0  0
   16.4034    4.0657   11.5889 C   0  0  0  0  0  0  0  0  0  0  0  0
   17.7837    3.8021   12.0870 C   0  0  0  0  0  0  0  0  0  0  0  0
   18.7510    4.1571   11.4207 O   0  0  0  0  0  0  0  0  0  0  0  0
   17.8935    3.2468   13.3408 N   0  0  0  0  0  0  0  0  0  0  0  0
   16.8368    3.2481   14.2036 C   0  0  0  0  0  0  0  0  0  0  0  0
  1  2  1  0
  2  3  2  0
  3  4  1  0
  4  5  2  0
  5  6  1  0
  6  7  1  0
  7  8  1  0
  6  9  2  0
  9 10  1  0
 10 11  1  0
 11 12  2  0
 13 11  1  6
 13 14  1  0
 14 15  1  0
 15 16  1  0
 16 17  1  0
 17 18  2  0
 18 19  1  0
 19 20  2  0
 19 21  1  0
 21 22  1  0
  9  2  1  0
 22 13  1  0
 22 16  2  0
M  END
>  <HIPPO ID>  (118) 
43532

>  <ref_url>  (118) 
None

>  <ref_pdb>  (118) 
c0300a

>  <inchikey>  (118) 
CPSNXGOJRPNXRM-LLVKDONJSA-N

>  <original SMILES>  (118) 
Cc1ccnc(CO)c1NC(=O)[C@@H]1CCc2ccc(=O)[nH]c21

>  <generation_date>  (118) 
None

>  <tags>  (118) 
[]

>  <ref_mols>  (118) 
c0305a,c1135a

>  <alias>  (118) 
None

>  <original ID>  (118) 
CPSNXGOJRPNXRM-LLVKDONJSA-N

>  <exports>  (118) 
['/opt/xchem-fragalysis-2/maxwin/CHIKV_HIPPO/hippo_prod/CHIKV_prod11c_recipes/Recipe_1GJWBFH_poses.sdf', '/opt/xchem-fragalysis-2/maxwin/CHIKV_HIPPO/hippo_prod/CHIKV_prod11c_recipes/Recipe_1GJXK8G_poses.sdf', '/opt/xchem-fragalysis-2/maxwin/CHIKV_HIPPO/hippo_prod/CHIKV_prod11c_recipes/Recipe_1GJXW46_poses.sdf']

>  <method>  (118) 
None

>  <submitter_email>  (118) 
None

>  <submitter_name>  (118) 
None

$$$$
CPSNXGOJRPNXRM-NSHDSACASA-N
     RDKit          3D

 22 24  0  0  0  0  0  0  0  0999 V2000
   14.6923    0.8324   19.0191 C   0  0  0  0  0  0  0  0  0  0  0  0
   15.6789   -0.2480   18.6892 C   0  0  0  0  0  0  0  0  0  0  0  0
   15.4496   -1.4762   19.3301 C   0  0  0  0  0  0  0  0  0  0  0  0
   16.3166   -2.5328   19.1579 C   0  0  0  0  0  0  0  0  0  0  0  0
   17.3970   -2.4684   18.3727 N   0  0  0  0  0  0  0  0  0  0  0  0
   17.6223   -1.2908   17.7233 C   0  0  0  0  0  0  0  0  0  0  0  0
   18.9465   -1.3345   16.9955 C   0  0  0  0  0  0  0  0  0  0  0  0
   19.1087   -0.3823   15.9545 O   0  0  0  0  0  0  0  0  0  0  0  0
   16.7830   -0.1387   17.8310 C   0  0  0  0  0  0  0  0  0  0  0  0
   17.1696    1.0258   17.1037 N   0  0  0  0  0  0  0  0  0  0  0  0
   16.4736    2.1733   16.7454 C   0  0  0  0  0  0  0  0  0  0  0  0
   15.3026    2.4195   17.0027 O   0  0  0  0  0  0  0  0  0  0  0  0
   17.3009    3.2501   15.9507 C   0  0  1  0  0  0  0  0  0  0  0  0
   18.3423    2.6327   15.0481 C   0  0  0  0  0  0  0  0  0  0  0  0
   17.4242    1.9478   14.0367 C   0  0  0  0  0  0  0  0  0  0  0  0
   16.2196    2.8391   13.9230 C   0  0  0  0  0  0  0  0  0  0  0  0
   15.6439    3.1315   12.6394 C   0  0  0  0  0  0  0  0  0  0  0  0
   16.0219    4.2602   12.0409 C   0  0  0  0  0  0  0  0  0  0  0  0
   17.0360    5.0028   12.8110 C   0  0  0  0  0  0  0  0  0  0  0  0
   18.0369    5.4133   12.2372 O   0  0  0  0  0  0  0  0  0  0  0  0
   16.8403    5.0301   14.1957 N   0  0  0  0  0  0  0  0  0  0  0  0
   16.4602    3.8203   14.8077 C   0  0  0  0  0  0  0  0  0  0  0  0
  1  2  1  0
  2  3  2  0
  3  4  1  0
  4  5  2  0
  5  6  1  0
  6  7  1  0
  7  8  1  0
  6  9  2  0
  9 10  1  0
 10 11  1  0
 11 12  2  0
 13 11  1  6
 13 14  1  0
 14 15  1  0
 15 16  1  0
 16 17  1  0
 17 18  2  0
 18 19  1  0
 19 20  2  0
 19 21  1  0
 21 22  1  0
  9  2  1  0
 22 13  1  0
 22 16  2  0
M  END
>  <HIPPO ID>  (119) 
43533

>  <ref_url>  (119) 
None

>  <ref_pdb>  (119) 
c0300a

>  <inchikey>  (119) 
CPSNXGOJRPNXRM-NSHDSACASA-N

>  <original SMILES>  (119) 
Cc1ccnc(CO)c1NC(=O)[C@H]1CCc2ccc(=O)[nH]c21

>  <generation_date>  (119) 
None

>  <tags>  (119) 
[]

>  <ref_mols>  (119) 
c0305a,c1135a

>  <alias>  (119) 
None

>  <original ID>  (119) 
CPSNXGOJRPNXRM-NSHDSACASA-N

>  <exports>  (119) 
['/opt/xchem-fragalysis-2/maxwin/CHIKV_HIPPO/hippo_prod/CHIKV_prod11c_recipes/Recipe_1GJWBFH_poses.sdf', '/opt/xchem-fragalysis-2/maxwin/CHIKV_HIPPO/hippo_prod/CHIKV_prod11c_recipes/Recipe_1GJXK8G_poses.sdf', '/opt/xchem-fragalysis-2/maxwin/CHIKV_HIPPO/hippo_prod/CHIKV_prod11c_recipes/Recipe_1GJXW46_poses.sdf']

>  <method>  (119) 
None

>  <submitter_email>  (119) 
None

>  <submitter_name>  (119) 
None

$$$$
HGBAJEMUEKUJKI-GFCCVEGCSA-N
     RDKit          3D

 23 25  0  0  0  0  0  0  0  0999 V2000
   17.0336   -3.7623   19.6745 C   0  0  0  0  0  0  0  0  0  0  0  0
   17.0115   -2.4636   18.9239 C   0  0  0  0  0  0  0  0  0  0  0  0
   17.9114   -2.3698   17.9256 N   0  0  0  0  0  0  0  0  0  0  0  0
   17.9901   -1.1821   17.2970 C   0  0  0  0  0  0  0  0  0  0  0  0
   19.3639   -1.1036   16.2718 Cl  0  0  0  0  0  0  0  0  0  0  0  0
   17.1725   -0.0826   17.5590 C   0  0  0  0  0  0  0  0  0  0  0  0
   17.4347    1.1900   17.0048 N   0  0  0  0  0  0  0  0  0  0  0  0
   16.7317    1.5644   15.8678 C   0  0  0  0  0  0  0  0  0  0  0  0
   15.9896    0.8208   15.2447 O   0  0  0  0  0  0  0  0  0  0  0  0
   16.9304    3.0442   15.5563 C   0  0  2  0  0  0  0  0  0  0  0  0
   15.7386    3.8683   16.0650 C   0  0  0  0  0  0  0  0  0  0  0  0
   14.7611    3.9689   14.8816 C   0  0  0  0  0  0  0  0  0  0  0  0
   15.6593    3.7772   13.7273 C   0  0  0  0  0  0  0  0  0  0  0  0
   15.3750    4.0611   12.3594 C   0  0  0  0  0  0  0  0  0  0  0  0
   16.3933    4.0711   11.4902 C   0  0  0  0  0  0  0  0  0  0  0  0
   17.7808    3.8400   11.9896 C   0  0  0  0  0  0  0  0  0  0  0  0
   18.7510    4.2004   11.3323 O   0  0  0  0  0  0  0  0  0  0  0  0
   17.9035    3.3114   13.2465 N   0  0  0  0  0  0  0  0  0  0  0  0
   16.8525    3.3208   14.1073 C   0  0  0  0  0  0  0  0  0  0  0  0
   16.1746   -0.2161   18.5207 C   0  0  0  0  0  0  0  0  0  0  0  0
   15.1672    0.8808   18.7675 C   0  0  0  0  0  0  0  0  0  0  0  0
   16.1584   -1.4027   19.2718 C   0  0  0  0  0  0  0  0  0  0  0  0
   15.2034   -1.5140   20.4038 C   0  0  0  0  0  0  0  0  0  0  0  0
  1  2  1  0
  2  3  2  0
  3  4  1  0
  4  5  1  0
  4  6  2  0
  6  7  1  0
  7  8  1  0
  8  9  2  0
 10  8  1  6
 10 11  1  0
 11 12  1  0
 12 13  1  0
 13 14  1  0
 14 15  2  0
 15 16  1  0
 16 17  2  0
 16 18  1  0
 18 19  1  0
  6 20  1  0
 20 21  1  0
 20 22  2  0
 22 23  1  0
 22  2  1  0
 19 10  1  0
 19 13  2  0
M  END
>  <HIPPO ID>  (120) 
44331

>  <ref_url>  (120) 
None

>  <ref_pdb>  (120) 
c0300a

>  <inchikey>  (120) 
HGBAJEMUEKUJKI-GFCCVEGCSA-N

>  <original SMILES>  (120) 
Cc1nc(Cl)c(NC(=O)[C@@H]2CCc3ccc(=O)[nH]c32)c(C)c1C

>  <generation_date>  (120) 
None

>  <tags>  (120) 
[]

>  <ref_mols>  (120) 
c0305a,c1135a

>  <alias>  (120) 
None

>  <original ID>  (120) 
HGBAJEMUEKUJKI-GFCCVEGCSA-N

>  <exports>  (120) 
['/opt/xchem-fragalysis-2/maxwin/CHIKV_HIPPO/hippo_prod/CHIKV_prod11c_recipes/Recipe_1GJWBFH_poses.sdf', '/opt/xchem-fragalysis-2/maxwin/CHIKV_HIPPO/hippo_prod/CHIKV_prod11c_recipes/Recipe_1GJXK8G_poses.sdf', '/opt/xchem-fragalysis-2/maxwin/CHIKV_HIPPO/hippo_prod/CHIKV_prod11c_recipes/Recipe_1GJXW46_poses.sdf']

>  <method>  (120) 
None

>  <submitter_email>  (120) 
None

>  <submitter_name>  (120) 
None

$$$$
HGBAJEMUEKUJKI-LBPRGKRZSA-N
     RDKit          3D

 23 25  0  0  0  0  0  0  0  0999 V2000
   17.0384   -3.6833   19.6901 C   0  0  0  0  0  0  0  0  0  0  0  0
   16.9959   -2.3748   18.9569 C   0  0  0  0  0  0  0  0  0  0  0  0
   17.9004   -2.2497   17.9785 N   0  0  0  0  0  0  0  0  0  0  0  0
   17.9289   -1.0592   17.3575 C   0  0  0  0  0  0  0  0  0  0  0  0
   19.2643   -0.9888   16.2695 Cl  0  0  0  0  0  0  0  0  0  0  0  0
   17.0586    0.0343   17.5526 C   0  0  0  0  0  0  0  0  0  0  0  0
   17.3347    1.2064   16.8009 N   0  0  0  0  0  0  0  0  0  0  0  0
   16.5551    2.2969   16.4659 C   0  0  0  0  0  0  0  0  0  0  0  0
   15.3713    2.4492   16.7366 O   0  0  0  0  0  0  0  0  0  0  0  0
   17.2932    3.4114   15.6608 C   0  0  1  0  0  0  0  0  0  0  0  0
   18.3404    2.8714   14.7147 C   0  0  0  0  0  0  0  0  0  0  0  0
   17.4473    2.1715   13.6991 C   0  0  0  0  0  0  0  0  0  0  0  0
   16.1881    2.9825   13.6472 C   0  0  0  0  0  0  0  0  0  0  0  0
   15.5680    3.3106   12.3812 C   0  0  0  0  0  0  0  0  0  0  0  0
   15.8529    4.5067   11.8545 C   0  0  0  0  0  0  0  0  0  0  0  0
   16.8810    5.1825   12.6736 C   0  0  0  0  0  0  0  0  0  0  0  0
   17.9958    5.3608   12.1936 O   0  0  0  0  0  0  0  0  0  0  0  0
   16.5405    5.2242   14.0454 N   0  0  0  0  0  0  0  0  0  0  0  0
   16.3376    3.9315   14.5932 C   0  0  0  0  0  0  0  0  0  0  0  0
   16.0861   -0.1261   18.5381 C   0  0  0  0  0  0  0  0  0  0  0  0
   15.0372    0.9105   18.8497 C   0  0  0  0  0  0  0  0  0  0  0  0
   16.1175   -1.3306   19.2926 C   0  0  0  0  0  0  0  0  0  0  0  0
   15.2052   -1.4712   20.4586 C   0  0  0  0  0  0  0  0  0  0  0  0
  1  2  1  0
  2  3  2  0
  3  4  1  0
  4  5  1  0
  4  6  2  0
  6  7  1  0
  7  8  1  0
  8  9  2  0
 10  8  1  6
 10 11  1  0
 11 12  1  0
 12 13  1  0
 13 14  1  0
 14 15  2  0
 15 16  1  0
 16 17  2  0
 16 18  1  0
 18 19  1  0
  6 20  1  0
 20 21  1  0
 20 22  2  0
 22 23  1  0
 22  2  1  0
 19 10  1  0
 19 13  2  0
M  END
>  <HIPPO ID>  (121) 
44332

>  <ref_url>  (121) 
None

>  <ref_pdb>  (121) 
c0300a

>  <inchikey>  (121) 
HGBAJEMUEKUJKI-LBPRGKRZSA-N

>  <original SMILES>  (121) 
Cc1nc(Cl)c(NC(=O)[C@H]2CCc3ccc(=O)[nH]c32)c(C)c1C

>  <generation_date>  (121) 
None

>  <tags>  (121) 
[]

>  <ref_mols>  (121) 
c0305a,c1135a

>  <alias>  (121) 
None

>  <original ID>  (121) 
HGBAJEMUEKUJKI-LBPRGKRZSA-N

>  <exports>  (121) 
['/opt/xchem-fragalysis-2/maxwin/CHIKV_HIPPO/hippo_prod/CHIKV_prod11c_recipes/Recipe_1GJWBFH_poses.sdf', '/opt/xchem-fragalysis-2/maxwin/CHIKV_HIPPO/hippo_prod/CHIKV_prod11c_recipes/Recipe_1GJXK8G_poses.sdf', '/opt/xchem-fragalysis-2/maxwin/CHIKV_HIPPO/hippo_prod/CHIKV_prod11c_recipes/Recipe_1GJXW46_poses.sdf']

>  <method>  (121) 
None

>  <submitter_email>  (121) 
None

>  <submitter_name>  (121) 
None

$$$$
PDIJYLSBCDCRNG-MRVPVSSYSA-N
     RDKit          3D

 23 25  0  0  0  0  0  0  0  0999 V2000
   14.5009    0.5535   20.1952 O   0  0  0  0  0  0  0  0  0  0  0  0
   14.9098    0.4836   19.0496 C   0  0  0  0  0  0  0  0  0  0  0  0
   14.3519    1.1701   18.0524 O   0  0  0  0  0  0  0  0  0  0  0  0
   15.9607   -0.4472   18.5884 C   0  0  0  0  0  0  0  0  0  0  0  0
   15.9646   -1.7121   19.1867 C   0  0  0  0  0  0  0  0  0  0  0  0
   16.9823   -2.5918   18.8645 C   0  0  0  0  0  0  0  0  0  0  0  0
   17.1083   -4.2552   19.7587 Br  0  0  0  0  0  0  0  0  0  0  0  0
   17.9659   -2.3097   17.9830 N   0  0  0  0  0  0  0  0  0  0  0  0
   17.9524   -1.0753   17.4416 C   0  0  0  0  0  0  0  0  0  0  0  0
   16.9928   -0.1067   17.7105 C   0  0  0  0  0  0  0  0  0  0  0  0
   17.1877    1.1986   17.2102 N   0  0  0  0  0  0  0  0  0  0  0  0
   16.5782    1.5453   16.0073 C   0  0  0  0  0  0  0  0  0  0  0  0
   15.8895    0.7807   15.3486 O   0  0  0  0  0  0  0  0  0  0  0  0
   16.8767    2.9970   15.6218 C   0  0  2  0  0  0  0  0  0  0  0  0
   15.7302    3.8971   16.1082 C   0  0  0  0  0  0  0  0  0  0  0  0
   14.7531    3.9991   14.9254 C   0  0  0  0  0  0  0  0  0  0  0  0
   15.6416    3.7513   13.7743 C   0  0  0  0  0  0  0  0  0  0  0  0
   15.3688    4.0545   12.4081 C   0  0  0  0  0  0  0  0  0  0  0  0
   16.3906    4.0603   11.5443 C   0  0  0  0  0  0  0  0  0  0  0  0
   17.7700    3.8056   12.0499 C   0  0  0  0  0  0  0  0  0  0  0  0
   18.7436    4.1649   11.3953 O   0  0  0  0  0  0  0  0  0  0  0  0
   17.8772    3.2511   13.3026 N   0  0  0  0  0  0  0  0  0  0  0  0
   16.8185    3.2579   14.1616 C   0  0  0  0  0  0  0  0  0  0  0  0
  1  2  2  0
  2  3  1  0
  2  4  1  0
  4  5  2  0
  5  6  1  0
  6  7  1  0
  6  8  2  0
  8  9  1  0
  9 10  2  0
 10 11  1  0
 11 12  1  0
 12 13  2  0
 14 12  1  6
 14 15  1  0
 15 16  1  0
 16 17  1  0
 17 18  1  0
 18 19  2  0
 19 20  1  0
 20 21  2  0
 20 22  1  0
 22 23  1  0
 10  4  1  0
 23 14  1  0
 23 17  2  0
M  END
>  <HIPPO ID>  (122) 
44379

>  <ref_url>  (122) 
None

>  <ref_pdb>  (122) 
c0300a

>  <inchikey>  (122) 
PDIJYLSBCDCRNG-MRVPVSSYSA-N

>  <original SMILES>  (122) 
O=C(O)c1cc(Br)ncc1NC(=O)[C@@H]1CCc2ccc(=O)[nH]c21

>  <generation_date>  (122) 
None

>  <tags>  (122) 
[]

>  <ref_mols>  (122) 
c0305a,c1135a

>  <alias>  (122) 
None

>  <original ID>  (122) 
PDIJYLSBCDCRNG-MRVPVSSYSA-N

>  <exports>  (122) 
['/opt/xchem-fragalysis-2/maxwin/CHIKV_HIPPO/hippo_prod/CHIKV_prod11c_recipes/Recipe_1GJWBFH_poses.sdf', '/opt/xchem-fragalysis-2/maxwin/CHIKV_HIPPO/hippo_prod/CHIKV_prod11c_recipes/Recipe_1GJXK8G_poses.sdf', '/opt/xchem-fragalysis-2/maxwin/CHIKV_HIPPO/hippo_prod/CHIKV_prod11c_recipes/Recipe_1GJXW46_poses.sdf']

>  <method>  (122) 
None

>  <submitter_email>  (122) 
None

>  <submitter_name>  (122) 
None

$$$$
PDIJYLSBCDCRNG-QMMMGPOBSA-N
     RDKit          3D

 23 25  0  0  0  0  0  0  0  0999 V2000
   14.9626    0.7948   20.2066 O   0  0  0  0  0  0  0  0  0  0  0  0
   15.0244    0.4443   19.0385 C   0  0  0  0  0  0  0  0  0  0  0  0
   14.2273    0.9522   18.0953 O   0  0  0  0  0  0  0  0  0  0  0  0
   16.0311   -0.5402   18.5838 C   0  0  0  0  0  0  0  0  0  0  0  0
   16.0182   -1.7828   19.2179 C   0  0  0  0  0  0  0  0  0  0  0  0
   17.0630   -2.6524   18.9622 C   0  0  0  0  0  0  0  0  0  0  0  0
   17.1355   -4.3272   19.8374 Br  0  0  0  0  0  0  0  0  0  0  0  0
   18.1011   -2.3641   18.1436 N   0  0  0  0  0  0  0  0  0  0  0  0
   18.1114   -1.1421   17.5772 C   0  0  0  0  0  0  0  0  0  0  0  0
   17.1103   -0.1991   17.7500 C   0  0  0  0  0  0  0  0  0  0  0  0
   17.1856    1.0258   17.0432 N   0  0  0  0  0  0  0  0  0  0  0  0
   16.3076    1.1406   15.9881 C   0  0  0  0  0  0  0  0  0  0  0  0
   15.7130    0.1587   15.5466 O   0  0  0  0  0  0  0  0  0  0  0  0
   16.0075    2.5341   15.4975 C   0  0  1  0  0  0  0  0  0  0  0  0
   16.0528    3.6448   16.5385 C   0  0  0  0  0  0  0  0  0  0  0  0
   15.5450    4.8558   15.7456 C   0  0  0  0  0  0  0  0  0  0  0  0
   16.0256    4.5183   14.3846 C   0  0  0  0  0  0  0  0  0  0  0  0
   15.9618    5.3529   13.2359 C   0  0  0  0  0  0  0  0  0  0  0  0
   16.5966    4.9521   12.1325 C   0  0  0  0  0  0  0  0  0  0  0  0
   17.4928    3.7673   12.2070 C   0  0  0  0  0  0  0  0  0  0  0  0
   18.4147    3.6837   11.4052 O   0  0  0  0  0  0  0  0  0  0  0  0
   17.2211    2.8774   13.2296 N   0  0  0  0  0  0  0  0  0  0  0  0
   16.4803    3.2629   14.3033 C   0  0  0  0  0  0  0  0  0  0  0  0
  1  2  2  0
  2  3  1  0
  2  4  1  0
  4  5  2  0
  5  6  1  0
  6  7  1  0
  6  8  2  0
  8  9  1  0
  9 10  2  0
 10 11  1  0
 11 12  1  0
 12 13  2  0
 14 12  1  1
 14 15  1  0
 15 16  1  0
 16 17  1  0
 17 18  1  0
 18 19  2  0
 19 20  1  0
 20 21  2  0
 20 22  1  0
 22 23  1  0
 10  4  1  0
 23 14  1  0
 23 17  2  0
M  END
>  <HIPPO ID>  (123) 
44380

>  <ref_url>  (123) 
None

>  <ref_pdb>  (123) 
c0300a

>  <inchikey>  (123) 
PDIJYLSBCDCRNG-QMMMGPOBSA-N

>  <original SMILES>  (123) 
O=C(O)c1cc(Br)ncc1NC(=O)[C@H]1CCc2ccc(=O)[nH]c21

>  <generation_date>  (123) 
None

>  <tags>  (123) 
[]

>  <ref_mols>  (123) 
c0305a,c1135a

>  <alias>  (123) 
None

>  <original ID>  (123) 
PDIJYLSBCDCRNG-QMMMGPOBSA-N

>  <exports>  (123) 
['/opt/xchem-fragalysis-2/maxwin/CHIKV_HIPPO/hippo_prod/CHIKV_prod11c_recipes/Recipe_1GJWBFH_poses.sdf', '/opt/xchem-fragalysis-2/maxwin/CHIKV_HIPPO/hippo_prod/CHIKV_prod11c_recipes/Recipe_1GJXK8G_poses.sdf', '/opt/xchem-fragalysis-2/maxwin/CHIKV_HIPPO/hippo_prod/CHIKV_prod11c_recipes/Recipe_1GJXW46_poses.sdf']

>  <method>  (123) 
None

>  <submitter_email>  (123) 
None

>  <submitter_name>  (123) 
None

$$$$
BFZVQBASOWSUJT-UHFFFAOYSA-N
     RDKit          3D

 17 19  0  0  0  0  0  0  0  0999 V2000
   16.2465   12.7498   16.0922 C   0  0  0  0  0  0  0  0  0  0  0  0
   15.7004   11.4449   16.4035 N   0  0  0  0  0  0  0  0  0  0  0  0
   15.7541   11.0547   17.6926 N   0  0  0  0  0  0  0  0  0  0  0  0
   15.3221    9.7969   17.6642 C   0  0  0  0  0  0  0  0  0  0  0  0
   14.9390    9.3978   16.3750 C   0  0  0  0  0  0  0  0  0  0  0  0
   14.3078    7.8690   15.9999 Cl  0  0  0  0  0  0  0  0  0  0  0  0
   15.1381   10.4983   15.5549 C   0  0  0  0  0  0  0  0  0  0  0  0
   14.8762   10.6862   14.1214 C   0  0  0  0  0  0  0  0  0  0  0  0
   14.5090   11.9488   13.6328 C   0  0  0  0  0  0  0  0  0  0  0  0
   14.4241   12.2246   12.2658 C   0  0  0  0  0  0  0  0  0  0  0  0
   14.4326   13.5480   11.8737 N   0  0  0  0  0  0  0  0  0  0  0  0
   14.6519   11.1877   11.3866 C   0  0  0  0  0  0  0  0  0  0  0  0
   14.8851    9.9200   11.8478 C   0  0  0  0  0  0  0  0  0  0  0  0
   15.0171    9.6418   13.1994 C   0  0  0  0  0  0  0  0  0  0  0  0
   15.0005    9.0149   10.8343 O   0  0  0  0  0  0  0  0  0  0  0  0
   14.9227    9.8734    9.6778 C   0  0  0  0  0  0  0  0  0  0  0  0
   14.6620   11.2527   10.0245 O   0  0  0  0  0  0  0  0  0  0  0  0
  1  2  1  0
  2  3  1  0
  3  4  2  0
  4  5  1  0
  5  6  1  0
  5  7  2  0
  7  8  1  0
  8  9  2  0
  9 10  1  0
 10 11  1  0
 10 12  2  0
 12 13  1  0
 13 14  2  0
 13 15  1  0
 15 16  1  0
 16 17  1  0
  7  2  1  0
 14  8  1  0
 17 12  1  0
M  END
>  <HIPPO ID>  (124) 
46362

>  <ref_url>  (124) 
None

>  <ref_pdb>  (124) 
c0300a

>  <inchikey>  (124) 
BFZVQBASOWSUJT-UHFFFAOYSA-N

>  <original SMILES>  (124) 
Cn1ncc(Cl)c1-c1cc(N)c2c(c1)OCO2

>  <generation_date>  (124) 
None

>  <tags>  (124) 
[]

>  <ref_mols>  (124) 
c0864a,c1338a

>  <alias>  (124) 
None

>  <original ID>  (124) 
BFZVQBASOWSUJT-UHFFFAOYSA-N

>  <exports>  (124) 
['/opt/xchem-fragalysis-2/maxwin/CHIKV_HIPPO/hippo_prod/CHIKV_prod11c_recipes/Recipe_1GJWBFH_poses.sdf', '/opt/xchem-fragalysis-2/maxwin/CHIKV_HIPPO/hippo_prod/CHIKV_prod11c_recipes/Recipe_1GJXK8G_poses.sdf', '/opt/xchem-fragalysis-2/maxwin/CHIKV_HIPPO/hippo_prod/CHIKV_prod11c_recipes/Recipe_1GJXW46_poses.sdf']

>  <method>  (124) 
None

>  <submitter_email>  (124) 
None

>  <submitter_name>  (124) 
None

$$$$
MOLHQPPIEJBAAQ-UHFFFAOYSA-N
     RDKit          3D

 19 21  0  0  0  0  0  0  0  0999 V2000
   13.9899   13.4004   11.7118 N   0  0  0  0  0  0  0  0  0  0  0  0
   14.4362   12.1883   12.1613 C   0  0  0  0  0  0  0  0  0  0  0  0
   14.5408   11.9700   13.5360 C   0  0  0  0  0  0  0  0  0  0  0  0
   14.8968   10.7170   14.0698 C   0  0  0  0  0  0  0  0  0  0  0  0
   15.1486   10.6111   15.5056 C   0  0  0  0  0  0  0  0  0  0  0  0
   15.2284    9.4554   16.3245 C   0  0  0  0  0  0  0  0  0  0  0  0
   15.4956    9.9179   17.5932 C   0  0  0  0  0  0  0  0  0  0  0  0
   15.5526   11.2751   17.4912 N   0  0  0  0  0  0  0  0  0  0  0  0
   15.8725   12.2312   18.5307 C   0  0  0  0  0  0  0  0  0  0  0  0
   14.7373   12.4301   19.5068 C   0  0  0  0  0  0  0  0  0  0  0  0
   14.4956   11.2848   20.1934 F   0  0  0  0  0  0  0  0  0  0  0  0
   13.5807   12.7678   18.8873 F   0  0  0  0  0  0  0  0  0  0  0  0
   15.3669   11.7147   16.2403 N   0  0  0  0  0  0  0  0  0  0  0  0
   15.0274    9.6292   13.2021 C   0  0  0  0  0  0  0  0  0  0  0  0
   14.8983    9.8630   11.8403 C   0  0  0  0  0  0  0  0  0  0  0  0
   14.6490   11.1122   11.3287 C   0  0  0  0  0  0  0  0  0  0  0  0
   14.6161   11.1191    9.9643 O   0  0  0  0  0  0  0  0  0  0  0  0
   14.8828    9.7316    9.6712 C   0  0  0  0  0  0  0  0  0  0  0  0
   14.9951    8.9185   10.8592 O   0  0  0  0  0  0  0  0  0  0  0  0
  1  2  1  0
  2  3  2  0
  3  4  1  0
  4  5  1  0
  5  6  1  0
  6  7  2  0
  7  8  1  0
  8  9  1  0
  9 10  1  0
 10 11  1  0
 10 12  1  0
  8 13  1  0
  4 14  2  0
 14 15  1  0
 15 16  2  0
 16 17  1  0
 17 18  1  0
 18 19  1  0
 16  2  1  0
 13  5  2  0
 19 15  1  0
M  END
>  <HIPPO ID>  (125) 
46420

>  <ref_url>  (125) 
None

>  <ref_pdb>  (125) 
c0300a

>  <inchikey>  (125) 
MOLHQPPIEJBAAQ-UHFFFAOYSA-N

>  <original SMILES>  (125) 
Nc1cc(-c2ccn(CC(F)F)n2)cc2c1OCO2

>  <generation_date>  (125) 
None

>  <tags>  (125) 
[]

>  <ref_mols>  (125) 
c0864a,c1338a

>  <alias>  (125) 
None

>  <original ID>  (125) 
MOLHQPPIEJBAAQ-UHFFFAOYSA-N

>  <exports>  (125) 
['/opt/xchem-fragalysis-2/maxwin/CHIKV_HIPPO/hippo_prod/CHIKV_prod11c_recipes/Recipe_1GJWBFH_poses.sdf', '/opt/xchem-fragalysis-2/maxwin/CHIKV_HIPPO/hippo_prod/CHIKV_prod11c_recipes/Recipe_1GJXK8G_poses.sdf', '/opt/xchem-fragalysis-2/maxwin/CHIKV_HIPPO/hippo_prod/CHIKV_prod11c_recipes/Recipe_1GJXW46_poses.sdf']

>  <method>  (125) 
None

>  <submitter_email>  (125) 
None

>  <submitter_name>  (125) 
None

$$$$
NHFGUUPWDGHPIV-UHFFFAOYSA-N
     RDKit          3D

 24 26  0  0  0  0  0  0  0  0999 V2000
   15.9118   13.2581   15.8835 C   0  0  0  0  0  0  0  0  0  0  0  0
   15.5536   11.9052   16.2452 N   0  0  0  0  0  0  0  0  0  0  0  0
   15.6963   11.5720   17.5403 N   0  0  0  0  0  0  0  0  0  0  0  0
   15.4330   10.2702   17.5689 C   0  0  0  0  0  0  0  0  0  0  0  0
   15.0448    9.7805   16.3059 C   0  0  0  0  0  0  0  0  0  0  0  0
   14.6846    8.5024   15.9416 N   0  0  0  0  0  0  0  0  0  0  0  0
   14.9626    7.4035   16.6878 C   0  0  0  0  0  0  0  0  0  0  0  0
   15.3372    7.3823   17.8467 O   0  0  0  0  0  0  0  0  0  0  0  0
   14.7958    6.3251   15.8893 O   0  0  0  0  0  0  0  0  0  0  0  0
   15.2665    5.0319   16.3349 C   0  0  0  0  0  0  0  0  0  0  0  0
   14.8349    4.0771   15.2122 C   0  0  0  0  0  0  0  0  0  0  0  0
   16.7939    5.0042   16.4094 C   0  0  0  0  0  0  0  0  0  0  0  0
   14.6794    4.6632   17.7017 C   0  0  0  0  0  0  0  0  0  0  0  0
   15.1037   10.8651   15.4407 C   0  0  0  0  0  0  0  0  0  0  0  0
   14.8582   10.9473   13.9921 C   0  0  0  0  0  0  0  0  0  0  0  0
   14.3474   12.1167   13.4210 C   0  0  0  0  0  0  0  0  0  0  0  0
   14.2926   12.2974   12.0364 C   0  0  0  0  0  0  0  0  0  0  0  0
   13.6830   13.4406   11.5603 N   0  0  0  0  0  0  0  0  0  0  0  0
   14.6038   11.2347   11.2221 C   0  0  0  0  0  0  0  0  0  0  0  0
   14.9440   10.0321   11.7660 C   0  0  0  0  0  0  0  0  0  0  0  0
   15.1181    9.8713   13.1312 C   0  0  0  0  0  0  0  0  0  0  0  0
   15.0770    9.0598   10.8201 O   0  0  0  0  0  0  0  0  0  0  0  0
   14.9178    9.8218    9.6061 C   0  0  0  0  0  0  0  0  0  0  0  0
   14.5393   11.1928    9.8629 O   0  0  0  0  0  0  0  0  0  0  0  0
  1  2  1  0
  2  3  1  0
  3  4  2  0
  4  5  1  0
  5  6  1  0
  6  7  1  0
  7  8  2  0
  7  9  1  0
  9 10  1  0
 10 11  1  0
 10 12  1  0
 10 13  1  0
  5 14  2  0
 14 15  1  0
 15 16  2  0
 16 17  1  0
 17 18  1  0
 17 19  2  0
 19 20  1  0
 20 21  2  0
 20 22  1  0
 22 23  1  0
 23 24  1  0
 14  2  1  0
 21 15  1  0
 24 19  1  0
M  END
>  <HIPPO ID>  (126) 
46546

>  <ref_url>  (126) 
None

>  <ref_pdb>  (126) 
c0300a

>  <inchikey>  (126) 
NHFGUUPWDGHPIV-UHFFFAOYSA-N

>  <original SMILES>  (126) 
Cn1ncc(NC(=O)OC(C)(C)C)c1-c1cc(N)c2c(c1)OCO2

>  <generation_date>  (126) 
None

>  <tags>  (126) 
[]

>  <ref_mols>  (126) 
c0864a,c1338a

>  <alias>  (126) 
None

>  <original ID>  (126) 
NHFGUUPWDGHPIV-UHFFFAOYSA-N

>  <exports>  (126) 
['/opt/xchem-fragalysis-2/maxwin/CHIKV_HIPPO/hippo_prod/CHIKV_prod11c_recipes/Recipe_1GJWBFH_poses.sdf', '/opt/xchem-fragalysis-2/maxwin/CHIKV_HIPPO/hippo_prod/CHIKV_prod11c_recipes/Recipe_1GJXK8G_poses.sdf', '/opt/xchem-fragalysis-2/maxwin/CHIKV_HIPPO/hippo_prod/CHIKV_prod11c_recipes/Recipe_1GJXW46_poses.sdf']

>  <method>  (126) 
None

>  <submitter_email>  (126) 
None

>  <submitter_name>  (126) 
None

$$$$
BFZVQBASOWSUJT-UHFFFAOYSA-N
     RDKit          3D

 17 19  0  0  0  0  0  0  0  0999 V2000
   16.2473   12.7399   16.0736 C   0  0  0  0  0  0  0  0  0  0  0  0
   15.6988   11.4371   16.3891 N   0  0  0  0  0  0  0  0  0  0  0  0
   15.7548   11.0496   17.6791 N   0  0  0  0  0  0  0  0  0  0  0  0
   15.3140    9.7948   17.6557 C   0  0  0  0  0  0  0  0  0  0  0  0
   14.9265    9.3938   16.3684 C   0  0  0  0  0  0  0  0  0  0  0  0
   14.2832    7.8685   15.9995 Cl  0  0  0  0  0  0  0  0  0  0  0  0
   15.1332   10.4894   15.5437 C   0  0  0  0  0  0  0  0  0  0  0  0
   14.8741   10.6714   14.1088 C   0  0  0  0  0  0  0  0  0  0  0  0
   14.5087   11.9318   13.6132 C   0  0  0  0  0  0  0  0  0  0  0  0
   14.4262   12.1996   12.2442 C   0  0  0  0  0  0  0  0  0  0  0  0
   14.4316   13.5196   11.8430 N   0  0  0  0  0  0  0  0  0  0  0  0
   14.6572   11.1593   11.3708 C   0  0  0  0  0  0  0  0  0  0  0  0
   14.8867    9.8936   11.8384 C   0  0  0  0  0  0  0  0  0  0  0  0
   15.0155    9.6221   13.1920 C   0  0  0  0  0  0  0  0  0  0  0  0
   15.0021    8.9842   10.8287 O   0  0  0  0  0  0  0  0  0  0  0  0
   14.9305    9.8389    9.6685 C   0  0  0  0  0  0  0  0  0  0  0  0
   14.6693   11.2194   10.0085 O   0  0  0  0  0  0  0  0  0  0  0  0
  1  2  1  0
  2  3  1  0
  3  4  2  0
  4  5  1  0
  5  6  1  0
  5  7  2  0
  7  8  1  0
  8  9  2  0
  9 10  1  0
 10 11  1  0
 10 12  2  0
 12 13  1  0
 13 14  2  0
 13 15  1  0
 15 16  1  0
 16 17  1  0
  7  2  1  0
 14  8  1  0
 17 12  1  0
M  END
>  <HIPPO ID>  (127) 
46710

>  <ref_url>  (127) 
None

>  <ref_pdb>  (127) 
c0300a

>  <inchikey>  (127) 
BFZVQBASOWSUJT-UHFFFAOYSA-N

>  <original SMILES>  (127) 
Cn1ncc(Cl)c1-c1cc(N)c2c(c1)OCO2

>  <generation_date>  (127) 
None

>  <tags>  (127) 
[]

>  <ref_mols>  (127) 
c0864a,c1203a

>  <alias>  (127) 
None

>  <original ID>  (127) 
BFZVQBASOWSUJT-UHFFFAOYSA-N

>  <exports>  (127) 
['/opt/xchem-fragalysis-2/maxwin/CHIKV_HIPPO/hippo_prod/CHIKV_prod11c_recipes/Recipe_1GJWBFH_poses.sdf', '/opt/xchem-fragalysis-2/maxwin/CHIKV_HIPPO/hippo_prod/CHIKV_prod11c_recipes/Recipe_1GJXK8G_poses.sdf', '/opt/xchem-fragalysis-2/maxwin/CHIKV_HIPPO/hippo_prod/CHIKV_prod11c_recipes/Recipe_1GJXW46_poses.sdf']

>  <method>  (127) 
None

>  <submitter_email>  (127) 
None

>  <submitter_name>  (127) 
None

$$$$
MOLHQPPIEJBAAQ-UHFFFAOYSA-N
     RDKit          3D

 19 21  0  0  0  0  0  0  0  0999 V2000
   14.4717   13.4889   11.8203 N   0  0  0  0  0  0  0  0  0  0  0  0
   14.4761   12.1766   12.2456 C   0  0  0  0  0  0  0  0  0  0  0  0
   14.6082   11.9332   13.6118 C   0  0  0  0  0  0  0  0  0  0  0  0
   14.8925   10.6544   14.1261 C   0  0  0  0  0  0  0  0  0  0  0  0
   15.1443   10.5291   15.5606 C   0  0  0  0  0  0  0  0  0  0  0  0
   15.3087    9.3673   16.3552 C   0  0  0  0  0  0  0  0  0  0  0  0
   15.5055    9.8225   17.6396 C   0  0  0  0  0  0  0  0  0  0  0  0
   15.4941   11.1828   17.5617 N   0  0  0  0  0  0  0  0  0  0  0  0
   15.5652   12.1413   18.6457 C   0  0  0  0  0  0  0  0  0  0  0  0
   16.9021   12.1393   19.3442 C   0  0  0  0  0  0  0  0  0  0  0  0
   17.9240   12.3044   18.4735 F   0  0  0  0  0  0  0  0  0  0  0  0
   17.1023   10.9572   19.9796 F   0  0  0  0  0  0  0  0  0  0  0  0
   15.2422   11.6294   16.3251 N   0  0  0  0  0  0  0  0  0  0  0  0
   14.9816    9.5774   13.2400 C   0  0  0  0  0  0  0  0  0  0  0  0
   14.8712    9.8432   11.8819 C   0  0  0  0  0  0  0  0  0  0  0  0
   14.6700   11.1115   11.3931 C   0  0  0  0  0  0  0  0  0  0  0  0
   14.6723   11.1498   10.0287 O   0  0  0  0  0  0  0  0  0  0  0  0
   14.9239    9.7638    9.7102 C   0  0  0  0  0  0  0  0  0  0  0  0
   14.9624    8.9187   10.8812 O   0  0  0  0  0  0  0  0  0  0  0  0
  1  2  1  0
  2  3  2  0
  3  4  1  0
  4  5  1  0
  5  6  1  0
  6  7  2  0
  7  8  1  0
  8  9  1  0
  9 10  1  0
 10 11  1  0
 10 12  1  0
  8 13  1  0
  4 14  2  0
 14 15  1  0
 15 16  2  0
 16 17  1  0
 17 18  1  0
 18 19  1  0
 16  2  1  0
 13  5  2  0
 19 15  1  0
M  END
>  <HIPPO ID>  (128) 
46768

>  <ref_url>  (128) 
None

>  <ref_pdb>  (128) 
c0300a

>  <inchikey>  (128) 
MOLHQPPIEJBAAQ-UHFFFAOYSA-N

>  <original SMILES>  (128) 
Nc1cc(-c2ccn(CC(F)F)n2)cc2c1OCO2

>  <generation_date>  (128) 
None

>  <tags>  (128) 
[]

>  <ref_mols>  (128) 
c0864a,c1203a

>  <alias>  (128) 
None

>  <original ID>  (128) 
MOLHQPPIEJBAAQ-UHFFFAOYSA-N

>  <exports>  (128) 
['/opt/xchem-fragalysis-2/maxwin/CHIKV_HIPPO/hippo_prod/CHIKV_prod11c_recipes/Recipe_1GJWBFH_poses.sdf', '/opt/xchem-fragalysis-2/maxwin/CHIKV_HIPPO/hippo_prod/CHIKV_prod11c_recipes/Recipe_1GJXK8G_poses.sdf', '/opt/xchem-fragalysis-2/maxwin/CHIKV_HIPPO/hippo_prod/CHIKV_prod11c_recipes/Recipe_1GJXW46_poses.sdf']

>  <method>  (128) 
None

>  <submitter_email>  (128) 
None

>  <submitter_name>  (128) 
None

$$$$
NHFGUUPWDGHPIV-UHFFFAOYSA-N
     RDKit          3D

 24 26  0  0  0  0  0  0  0  0999 V2000
   16.1689   13.0808   15.9968 C   0  0  0  0  0  0  0  0  0  0  0  0
   15.6813   11.7700   16.3647 N   0  0  0  0  0  0  0  0  0  0  0  0
   15.7804   11.4364   17.6634 N   0  0  0  0  0  0  0  0  0  0  0  0
   15.4358   10.1535   17.6919 C   0  0  0  0  0  0  0  0  0  0  0  0
   15.0289    9.6872   16.4265 C   0  0  0  0  0  0  0  0  0  0  0  0
   14.6027    8.4347   16.0510 N   0  0  0  0  0  0  0  0  0  0  0  0
   14.8864    7.3191   16.7666 C   0  0  0  0  0  0  0  0  0  0  0  0
   15.2759    7.2703   17.9197 O   0  0  0  0  0  0  0  0  0  0  0  0
   14.7197    6.2642   15.9388 O   0  0  0  0  0  0  0  0  0  0  0  0
   15.2474    4.9762   16.3279 C   0  0  0  0  0  0  0  0  0  0  0  0
   14.8098    4.0418   15.1905 C   0  0  0  0  0  0  0  0  0  0  0  0
   16.7767    5.0004   16.3441 C   0  0  0  0  0  0  0  0  0  0  0  0
   14.7315    4.5506   17.7075 C   0  0  0  0  0  0  0  0  0  0  0  0
   15.1521   10.7640   15.5641 C   0  0  0  0  0  0  0  0  0  0  0  0
   14.8840   10.8646   14.1233 C   0  0  0  0  0  0  0  0  0  0  0  0
   14.4568   12.0816   13.5921 C   0  0  0  0  0  0  0  0  0  0  0  0
   14.3776   12.2975   12.2181 C   0  0  0  0  0  0  0  0  0  0  0  0
   14.3745   13.5997   11.7875 N   0  0  0  0  0  0  0  0  0  0  0  0
   14.6237   11.2395   11.3722 C   0  0  0  0  0  0  0  0  0  0  0  0
   14.8994   10.0020   11.8772 C   0  0  0  0  0  0  0  0  0  0  0  0
   15.0753    9.7942   13.2358 C   0  0  0  0  0  0  0  0  0  0  0  0
   15.0222    9.0615   10.8983 O   0  0  0  0  0  0  0  0  0  0  0  0
   14.9211    9.8745    9.7096 C   0  0  0  0  0  0  0  0  0  0  0  0
   14.6266   11.2574   10.0093 O   0  0  0  0  0  0  0  0  0  0  0  0
  1  2  1  0
  2  3  1  0
  3  4  2  0
  4  5  1  0
  5  6  1  0
  6  7  1  0
  7  8  2  0
  7  9  1  0
  9 10  1  0
 10 11  1  0
 10 12  1  0
 10 13  1  0
  5 14  2  0
 14 15  1  0
 15 16  2  0
 16 17  1  0
 17 18  1  0
 17 19  2  0
 19 20  1  0
 20 21  2  0
 20 22  1  0
 22 23  1  0
 23 24  1  0
 14  2  1  0
 21 15  1  0
 24 19  1  0
M  END
>  <HIPPO ID>  (129) 
46892

>  <ref_url>  (129) 
None

>  <ref_pdb>  (129) 
c0300a

>  <inchikey>  (129) 
NHFGUUPWDGHPIV-UHFFFAOYSA-N

>  <original SMILES>  (129) 
Cn1ncc(NC(=O)OC(C)(C)C)c1-c1cc(N)c2c(c1)OCO2

>  <generation_date>  (129) 
None

>  <tags>  (129) 
[]

>  <ref_mols>  (129) 
c0864a,c1203a

>  <alias>  (129) 
None

>  <original ID>  (129) 
NHFGUUPWDGHPIV-UHFFFAOYSA-N

>  <exports>  (129) 
['/opt/xchem-fragalysis-2/maxwin/CHIKV_HIPPO/hippo_prod/CHIKV_prod11c_recipes/Recipe_1GJWBFH_poses.sdf', '/opt/xchem-fragalysis-2/maxwin/CHIKV_HIPPO/hippo_prod/CHIKV_prod11c_recipes/Recipe_1GJXK8G_poses.sdf', '/opt/xchem-fragalysis-2/maxwin/CHIKV_HIPPO/hippo_prod/CHIKV_prod11c_recipes/Recipe_1GJXW46_poses.sdf']

>  <method>  (129) 
None

>  <submitter_email>  (129) 
None

>  <submitter_name>  (129) 
None

$$$$
ZIUQIFJMKDQIMW-UHFFFAOYSA-N
     RDKit          3D

 16 17  0  0  0  0  0  0  0  0999 V2000
   13.6350    7.0584   11.3788 O   0  0  0  0  0  0  0  0  0  0  0  0
   14.5064    8.0958   11.2316 C   0  0  0  0  0  0  0  0  0  0  0  0
   14.9347    8.4049    9.9614 C   0  0  0  0  0  0  0  0  0  0  0  0
   15.8968    9.3978    9.7969 C   0  0  0  0  0  0  0  0  0  0  0  0
   16.4304   10.1241   10.8861 C   0  0  0  0  0  0  0  0  0  0  0  0
   17.5348   10.9398   10.5737 N   0  0  0  0  0  0  0  0  0  0  0  0
   18.3066   11.9499   11.1732 C   0  0  0  0  0  0  0  0  0  0  0  0
   17.7816   12.9685   11.9504 C   0  0  0  0  0  0  0  0  0  0  0  0
   18.6510   13.9370   12.4342 C   0  0  0  0  0  0  0  0  0  0  0  0
   19.9810   13.9690   12.1953 N   0  0  0  0  0  0  0  0  0  0  0  0
   20.4855   12.9681   11.4656 C   0  0  0  0  0  0  0  0  0  0  0  0
   19.6973   11.9629   10.9505 C   0  0  0  0  0  0  0  0  0  0  0  0
   20.2605   10.9719   10.2122 O   0  0  0  0  0  0  0  0  0  0  0  0
   15.8316    9.9129   12.1357 C   0  0  0  0  0  0  0  0  0  0  0  0
   16.1940   10.7936   13.5716 Cl  0  0  0  0  0  0  0  0  0  0  0  0
   14.9199    8.8609   12.3137 C   0  0  0  0  0  0  0  0  0  0  0  0
  1  2  1  0
  2  3  2  0
  3  4  1  0
  4  5  2  0
  5  6  1  0
  6  7  1  0
  7  8  2  0
  8  9  1  0
  9 10  2  0
 10 11  1  0
 11 12  2  0
 12 13  1  0
  5 14  1  0
 14 15  1  0
 14 16  2  0
 16  2  1  0
 12  7  1  0
M  END
>  <HIPPO ID>  (130) 
46941

>  <ref_url>  (130) 
None

>  <ref_pdb>  (130) 
c0270a

>  <inchikey>  (130) 
ZIUQIFJMKDQIMW-UHFFFAOYSA-N

>  <original SMILES>  (130) 
Oc1ccc(Nc2ccncc2O)c(Cl)c1

>  <generation_date>  (130) 
None

>  <tags>  (130) 
[]

>  <ref_mols>  (130) 
c0935a,c1132a

>  <alias>  (130) 
None

>  <original ID>  (130) 
ZIUQIFJMKDQIMW-UHFFFAOYSA-N

>  <exports>  (130) 
['/opt/xchem-fragalysis-2/maxwin/CHIKV_HIPPO/hippo_prod/CHIKV_prod11_recipes/Recipe_1G8PPKY_poses.sdf', '/opt/xchem-fragalysis-2/maxwin/CHIKV_HIPPO/hippo_prod/CHIKV_prod11c_recipes/Recipe_1GJWBFH_poses.sdf', '/opt/xchem-fragalysis-2/maxwin/CHIKV_HIPPO/hippo_prod/CHIKV_prod11c_recipes/Recipe_1GJXK8G_poses.sdf', '/opt/xchem-fragalysis-2/maxwin/CHIKV_HIPPO/hippo_prod/CHIKV_prod11c_recipes/Recipe_1GJXW46_poses.sdf']

>  <method>  (130) 
None

>  <submitter_email>  (130) 
None

>  <submitter_name>  (130) 
None

$$$$
GMYQXVROVXYEQF-UHFFFAOYSA-N
     RDKit          3D

 17 18  0  0  0  0  0  0  0  0999 V2000
   13.4148    6.1567   10.5423 C   0  0  0  0  0  0  0  0  0  0  0  0
   13.6263    7.1754   11.5144 O   0  0  0  0  0  0  0  0  0  0  0  0
   14.5161    8.1619   11.1879 C   0  0  0  0  0  0  0  0  0  0  0  0
   14.9689    8.4206    9.9071 C   0  0  0  0  0  0  0  0  0  0  0  0
   15.9690    9.3680    9.7107 C   0  0  0  0  0  0  0  0  0  0  0  0
   16.5256   10.0882   10.7765 C   0  0  0  0  0  0  0  0  0  0  0  0
   17.6677   10.8499   10.5149 N   0  0  0  0  0  0  0  0  0  0  0  0
   18.3643   11.8840   11.1567 C   0  0  0  0  0  0  0  0  0  0  0  0
   17.7607   12.8145   11.9884 C   0  0  0  0  0  0  0  0  0  0  0  0
   18.5534   13.8328   12.4971 C   0  0  0  0  0  0  0  0  0  0  0  0
   19.8775   13.9721   12.2595 N   0  0  0  0  0  0  0  0  0  0  0  0
   20.4610   13.0328   11.5056 C   0  0  0  0  0  0  0  0  0  0  0  0
   19.7525   11.9914   10.9524 C   0  0  0  0  0  0  0  0  0  0  0  0
   20.3893   11.0484   10.2103 O   0  0  0  0  0  0  0  0  0  0  0  0
   15.9311    9.9673   12.0253 C   0  0  0  0  0  0  0  0  0  0  0  0
   14.9530    8.9944   12.2246 C   0  0  0  0  0  0  0  0  0  0  0  0
   14.4304    8.8615   13.4542 F   0  0  0  0  0  0  0  0  0  0  0  0
  1  2  1  0
  2  3  1  0
  3  4  2  0
  4  5  1  0
  5  6  2  0
  6  7  1  0
  7  8  1  0
  8  9  2  0
  9 10  1  0
 10 11  2  0
 11 12  1  0
 12 13  2  0
 13 14  1  0
  6 15  1  0
 15 16  2  0
 16 17  1  0
 16  3  1  0
 13  8  1  0
M  END
>  <HIPPO ID>  (131) 
47112

>  <ref_url>  (131) 
None

>  <ref_pdb>  (131) 
c0270a

>  <inchikey>  (131) 
GMYQXVROVXYEQF-UHFFFAOYSA-N

>  <original SMILES>  (131) 
COc1ccc(Nc2ccncc2O)cc1F

>  <generation_date>  (131) 
None

>  <tags>  (131) 
[]

>  <ref_mols>  (131) 
c0935a,c1132a

>  <alias>  (131) 
None

>  <original ID>  (131) 
GMYQXVROVXYEQF-UHFFFAOYSA-N

>  <exports>  (131) 
['/opt/xchem-fragalysis-2/maxwin/CHIKV_HIPPO/hippo_prod/CHIKV_prod11c_recipes/Recipe_1GJWBFH_poses.sdf', '/opt/xchem-fragalysis-2/maxwin/CHIKV_HIPPO/hippo_prod/CHIKV_prod11c_recipes/Recipe_1GJXK8G_poses.sdf', '/opt/xchem-fragalysis-2/maxwin/CHIKV_HIPPO/hippo_prod/CHIKV_prod11c_recipes/Recipe_1GJXW46_poses.sdf']

>  <method>  (131) 
None

>  <submitter_email>  (131) 
None

>  <submitter_name>  (131) 
None

$$$$
WCKZUCTUACEFNN-UHFFFAOYSA-N
     RDKit          3D

 18 19  0  0  0  0  0  0  0  0999 V2000
   20.7388   10.6549   10.1799 C   0  0  0  0  0  0  0  0  0  0  0  0
   19.3598   10.9176   10.4222 O   0  0  0  0  0  0  0  0  0  0  0  0
   19.1406   12.0085   11.2055 C   0  0  0  0  0  0  0  0  0  0  0  0
   20.1819   12.8922   11.5546 C   0  0  0  0  0  0  0  0  0  0  0  0
   20.0449   13.9913   12.3066 N   0  0  0  0  0  0  0  0  0  0  0  0
   18.8240   14.1842   12.7890 C   0  0  0  0  0  0  0  0  0  0  0  0
   18.6417   15.5638   13.7626 Cl  0  0  0  0  0  0  0  0  0  0  0  0
   17.7337   13.3813   12.5373 C   0  0  0  0  0  0  0  0  0  0  0  0
   17.8384   12.2774   11.6784 C   0  0  0  0  0  0  0  0  0  0  0  0
   16.6466   11.6226   11.2650 N   0  0  0  0  0  0  0  0  0  0  0  0
   15.3847   12.3103   11.5961 C   0  0  0  0  0  0  0  0  0  0  0  0
   16.2897   10.2474   11.1334 C   0  0  0  0  0  0  0  0  0  0  0  0
   15.8710    9.7905    9.8758 C   0  0  0  0  0  0  0  0  0  0  0  0
   15.0653    8.6632    9.7439 C   0  0  0  0  0  0  0  0  0  0  0  0
   14.6916    7.9581   10.8752 C   0  0  0  0  0  0  0  0  0  0  0  0
   13.8407    6.8975   10.7763 O   0  0  0  0  0  0  0  0  0  0  0  0
   15.1311    8.3510   12.1327 C   0  0  0  0  0  0  0  0  0  0  0  0
   15.9188    9.4992   12.2630 C   0  0  0  0  0  0  0  0  0  0  0  0
  1  2  1  0
  2  3  1  0
  3  4  2  0
  4  5  1  0
  5  6  2  0
  6  7  1  0
  6  8  1  0
  8  9  2  0
  9 10  1  0
 10 11  1  0
 10 12  1  0
 12 13  2  0
 13 14  1  0
 14 15  2  0
 15 16  1  0
 15 17  1  0
 17 18  2  0
  9  3  1  0
 18 12  1  0
M  END
>  <HIPPO ID>  (132) 
47388

>  <ref_url>  (132) 
None

>  <ref_pdb>  (132) 
c0270a

>  <inchikey>  (132) 
WCKZUCTUACEFNN-UHFFFAOYSA-N

>  <original SMILES>  (132) 
COc1cnc(Cl)cc1N(C)c1ccc(O)cc1

>  <generation_date>  (132) 
None

>  <tags>  (132) 
[]

>  <ref_mols>  (132) 
c0935a,c1132a

>  <alias>  (132) 
None

>  <original ID>  (132) 
WCKZUCTUACEFNN-UHFFFAOYSA-N

>  <exports>  (132) 
['/opt/xchem-fragalysis-2/maxwin/CHIKV_HIPPO/hippo_prod/CHIKV_prod11c_recipes/Recipe_1GJXW46_poses.sdf']

>  <method>  (132) 
None

>  <submitter_email>  (132) 
None

>  <submitter_name>  (132) 
None

$$$$
SMUPBFYQUGCNGO-UHFFFAOYSA-N
     RDKit          3D

 18 19  0  0  0  0  0  0  0  0999 V2000
   14.0115    6.1942   11.4866 C   0  0  0  0  0  0  0  0  0  0  0  0
   13.7657    7.4986   11.9923 O   0  0  0  0  0  0  0  0  0  0  0  0
   14.6896    8.4487   11.6492 C   0  0  0  0  0  0  0  0  0  0  0  0
   14.9706    8.8085   10.3402 C   0  0  0  0  0  0  0  0  0  0  0  0
   13.6684    8.5156    8.8182 I   0  0  0  0  0  0  0  0  0  0  0  0
   16.0230    9.6570   10.0427 C   0  0  0  0  0  0  0  0  0  0  0  0
   16.7113   10.3122   11.0521 C   0  0  0  0  0  0  0  0  0  0  0  0
   17.8273   11.0505   10.6688 N   0  0  0  0  0  0  0  0  0  0  0  0
   18.5925   12.0691   11.2458 C   0  0  0  0  0  0  0  0  0  0  0  0
   18.0626   13.0488   12.0690 C   0  0  0  0  0  0  0  0  0  0  0  0
   18.9237   14.0370   12.5192 C   0  0  0  0  0  0  0  0  0  0  0  0
   20.2432   14.1020   12.2266 N   0  0  0  0  0  0  0  0  0  0  0  0
   20.7510   13.1157   11.4763 C   0  0  0  0  0  0  0  0  0  0  0  0
   19.9718   12.0974   10.9829 C   0  0  0  0  0  0  0  0  0  0  0  0
   20.5191   11.0957   10.2459 O   0  0  0  0  0  0  0  0  0  0  0  0
   16.2270   10.1992   12.3525 C   0  0  0  0  0  0  0  0  0  0  0  0
   15.2496    9.2394   12.6541 C   0  0  0  0  0  0  0  0  0  0  0  0
   14.6292    9.0611   14.6435 I   0  0  0  0  0  0  0  0  0  0  0  0
  1  2  1  0
  2  3  1  0
  3  4  2  0
  4  5  1  0
  4  6  1  0
  6  7  2  0
  7  8  1  0
  8  9  1  0
  9 10  2  0
 10 11  1  0
 11 12  2  0
 12 13  1  0
 13 14  2  0
 14 15  1  0
  7 16  1  0
 16 17  2  0
 17 18  1  0
 17  3  1  0
 14  9  1  0
M  END
>  <HIPPO ID>  (133) 
47748

>  <ref_url>  (133) 
None

>  <ref_pdb>  (133) 
c0270a

>  <inchikey>  (133) 
SMUPBFYQUGCNGO-UHFFFAOYSA-N

>  <original SMILES>  (133) 
COc1c(I)cc(Nc2ccncc2O)cc1I

>  <generation_date>  (133) 
None

>  <tags>  (133) 
[]

>  <ref_mols>  (133) 
c0935a,c1132a

>  <alias>  (133) 
None

>  <original ID>  (133) 
SMUPBFYQUGCNGO-UHFFFAOYSA-N

>  <exports>  (133) 
['/opt/xchem-fragalysis-2/maxwin/CHIKV_HIPPO/hippo_prod/CHIKV_prod11c_recipes/Recipe_1GJWBFH_poses.sdf', '/opt/xchem-fragalysis-2/maxwin/CHIKV_HIPPO/hippo_prod/CHIKV_prod11c_recipes/Recipe_1GJXK8G_poses.sdf', '/opt/xchem-fragalysis-2/maxwin/CHIKV_HIPPO/hippo_prod/CHIKV_prod11c_recipes/Recipe_1GJXW46_poses.sdf']

>  <method>  (133) 
None

>  <submitter_email>  (133) 
None

>  <submitter_name>  (133) 
None

$$$$
XHPQDAKVXLMYAN-UHFFFAOYSA-N
     RDKit          3D

 18 19  0  0  0  0  0  0  0  0999 V2000
   13.5772    6.2110   10.2977 C   0  0  0  0  0  0  0  0  0  0  0  0
   13.7686    7.0561   11.4188 O   0  0  0  0  0  0  0  0  0  0  0  0
   14.6233    8.1122   11.2706 C   0  0  0  0  0  0  0  0  0  0  0  0
   15.0550    8.6583   10.0674 C   0  0  0  0  0  0  0  0  0  0  0  0
   15.8243    9.8329   10.0718 C   0  0  0  0  0  0  0  0  0  0  0  0
   16.2262   10.4476   11.2707 C   0  0  0  0  0  0  0  0  0  0  0  0
   16.7890   11.7615   11.2700 N   0  0  0  0  0  0  0  0  0  0  0  0
   15.8070   12.6629   11.8917 C   0  0  0  0  0  0  0  0  0  0  0  0
   18.1496   12.1511   11.4523 C   0  0  0  0  0  0  0  0  0  0  0  0
   18.5179   13.2601   12.2374 C   0  0  0  0  0  0  0  0  0  0  0  0
   19.8509   13.6369   12.3361 C   0  0  0  0  0  0  0  0  0  0  0  0
   20.8574   13.0080   11.7121 N   0  0  0  0  0  0  0  0  0  0  0  0
   20.5199   11.9418   10.9682 C   0  0  0  0  0  0  0  0  0  0  0  0
   19.2092   11.5065   10.8073 C   0  0  0  0  0  0  0  0  0  0  0  0
   19.0164   10.4715    9.9635 O   0  0  0  0  0  0  0  0  0  0  0  0
   15.8163    9.8626   12.4715 C   0  0  0  0  0  0  0  0  0  0  0  0
   14.9953    8.7439   12.4582 C   0  0  0  0  0  0  0  0  0  0  0  0
   14.4731    8.3371   13.6246 F   0  0  0  0  0  0  0  0  0  0  0  0
  1  2  1  0
  2  3  1  0
  3  4  2  0
  4  5  1  0
  5  6  2  0
  6  7  1  0
  7  8  1  0
  7  9  1  0
  9 10  2  0
 10 11  1  0
 11 12  2  0
 12 13  1  0
 13 14  2  0
 14 15  1  0
  6 16  1  0
 16 17  2  0
 17 18  1  0
 17  3  1  0
 14  9  1  0
M  END
>  <HIPPO ID>  (134) 
47774

>  <ref_url>  (134) 
None

>  <ref_pdb>  (134) 
c0270a

>  <inchikey>  (134) 
XHPQDAKVXLMYAN-UHFFFAOYSA-N

>  <original SMILES>  (134) 
COc1ccc(N(C)c2ccncc2O)cc1F

>  <generation_date>  (134) 
None

>  <tags>  (134) 
[]

>  <ref_mols>  (134) 
c0935a,c1132a

>  <alias>  (134) 
None

>  <original ID>  (134) 
XHPQDAKVXLMYAN-UHFFFAOYSA-N

>  <exports>  (134) 
['/opt/xchem-fragalysis-2/maxwin/CHIKV_HIPPO/hippo_prod/CHIKV_prod11c_recipes/Recipe_1GJWBFH_poses.sdf', '/opt/xchem-fragalysis-2/maxwin/CHIKV_HIPPO/hippo_prod/CHIKV_prod11c_recipes/Recipe_1GJXK8G_poses.sdf', '/opt/xchem-fragalysis-2/maxwin/CHIKV_HIPPO/hippo_prod/CHIKV_prod11c_recipes/Recipe_1GJXW46_poses.sdf']

>  <method>  (134) 
None

>  <submitter_email>  (134) 
None

>  <submitter_name>  (134) 
None

$$$$
QELXFMRNSMWPKT-UHFFFAOYSA-N
     RDKit          3D

 19 20  0  0  0  0  0  0  0  0999 V2000
   21.4495   11.4652   10.5837 C   0  0  0  0  0  0  0  0  0  0  0  0
   20.0270   11.4058   10.4931 O   0  0  0  0  0  0  0  0  0  0  0  0
   19.3261   12.3077   11.2500 C   0  0  0  0  0  0  0  0  0  0  0  0
   19.8667   13.3992   11.9159 C   0  0  0  0  0  0  0  0  0  0  0  0
   19.1352   14.2637   12.6518 N   0  0  0  0  0  0  0  0  0  0  0  0
   17.8174   14.0116   12.7445 C   0  0  0  0  0  0  0  0  0  0  0  0
   16.9464   15.1339   13.6987 Cl  0  0  0  0  0  0  0  0  0  0  0  0
   17.1731   12.9590   12.1252 C   0  0  0  0  0  0  0  0  0  0  0  0
   17.9339   12.0882   11.3502 C   0  0  0  0  0  0  0  0  0  0  0  0
   17.3623   11.0044   10.6582 N   0  0  0  0  0  0  0  0  0  0  0  0
   16.2747   10.1341   10.8428 C   0  0  0  0  0  0  0  0  0  0  0  0
   15.6868    9.6359    9.6672 C   0  0  0  0  0  0  0  0  0  0  0  0
   14.7224    8.6491    9.7158 C   0  0  0  0  0  0  0  0  0  0  0  0
   14.0802    8.2767    8.6061 F   0  0  0  0  0  0  0  0  0  0  0  0
   14.3904    8.0610   10.9175 C   0  0  0  0  0  0  0  0  0  0  0  0
   13.5306    7.0028   10.9535 O   0  0  0  0  0  0  0  0  0  0  0  0
   14.8665    8.5989   12.1008 C   0  0  0  0  0  0  0  0  0  0  0  0
   15.7399    9.6936   12.0669 C   0  0  0  0  0  0  0  0  0  0  0  0
   16.1376   10.3680   13.6014 Cl  0  0  0  0  0  0  0  0  0  0  0  0
  1  2  1  0
  2  3  1  0
  3  4  2  0
  4  5  1  0
  5  6  2  0
  6  7  1  0
  6  8  1  0
  8  9  2  0
  9 10  1  0
 10 11  1  0
 11 12  2  0
 12 13  1  0
 13 14  1  0
 13 15  2  0
 15 16  1  0
 15 17  1  0
 17 18  2  0
 18 19  1  0
  9  3  1  0
 18 11  1  0
M  END
>  <HIPPO ID>  (135) 
48656

>  <ref_url>  (135) 
None

>  <ref_pdb>  (135) 
c0270a

>  <inchikey>  (135) 
QELXFMRNSMWPKT-UHFFFAOYSA-N

>  <original SMILES>  (135) 
COc1cnc(Cl)cc1Nc1cc(F)c(O)cc1Cl

>  <generation_date>  (135) 
None

>  <tags>  (135) 
[]

>  <ref_mols>  (135) 
c0935a,c1132a

>  <alias>  (135) 
None

>  <original ID>  (135) 
QELXFMRNSMWPKT-UHFFFAOYSA-N

>  <exports>  (135) 
['/opt/xchem-fragalysis-2/maxwin/CHIKV_HIPPO/hippo_prod/CHIKV_prod11c_recipes/Recipe_1GJXW46_poses.sdf']

>  <method>  (135) 
None

>  <submitter_email>  (135) 
None

>  <submitter_name>  (135) 
None

$$$$
CPWZOEWXUNUGCV-UHFFFAOYSA-N
     RDKit          3D

 22 22  0  0  0  0  0  0  0  0999 V2000
   21.3574   11.5872   10.5592 C   0  0  0  0  0  0  0  0  0  0  0  0
   19.9415   11.4346   10.4745 O   0  0  0  0  0  0  0  0  0  0  0  0
   19.2513   12.3995   11.2602 C   0  0  0  0  0  0  0  0  0  0  0  0
   17.8743   11.8630   11.6752 C   0  0  0  0  0  0  0  0  0  0  0  0
   17.3553   12.2071   12.7359 O   0  0  0  0  0  0  0  0  0  0  0  0
   17.3269   10.9699   10.7879 N   0  0  0  0  0  0  0  0  0  0  0  0
   16.2241   10.0875   10.9160 C   0  0  0  0  0  0  0  0  0  0  0  0
   15.7889    9.5814    9.6816 C   0  0  0  0  0  0  0  0  0  0  0  0
   14.8284    8.5930    9.5885 C   0  0  0  0  0  0  0  0  0  0  0  0
   14.3537    8.0136   10.7431 C   0  0  0  0  0  0  0  0  0  0  0  0
   13.5007    6.9498   10.6320 O   0  0  0  0  0  0  0  0  0  0  0  0
   14.7113    8.5183   12.0025 C   0  0  0  0  0  0  0  0  0  0  0  0
   14.1264    7.8743   13.1498 C   0  0  0  0  0  0  0  0  0  0  0  0
   13.5872    7.3768   14.0513 N   0  0  0  0  0  0  0  0  0  0  0  0
   15.6096    9.6125   12.1048 C   0  0  0  0  0  0  0  0  0  0  0  0
   16.0197   10.0906   13.3761 N   0  0  0  0  0  0  0  0  0  0  0  0
   15.2483   10.1037   14.5253 C   0  0  0  0  0  0  0  0  0  0  0  0
   14.0436   10.3412   14.5389 O   0  0  0  0  0  0  0  0  0  0  0  0
   16.0357    9.8009   15.8013 C   0  0  0  0  0  0  0  0  0  0  0  0
   16.1120    8.3469   16.0597 N   0  0  0  0  0  0  0  0  0  0  0  0
   16.4707    8.0960   17.4533 C   0  0  0  0  0  0  0  0  0  0  0  0
   17.0104    7.5947   15.1971 C   0  0  0  0  0  0  0  0  0  0  0  0
  1  2  1  0
  2  3  1  0
  3  4  1  0
  4  5  2  0
  4  6  1  0
  6  7  1  0
  7  8  2  0
  8  9  1  0
  9 10  2  0
 10 11  1  0
 10 12  1  0
 12 13  1  0
 13 14  3  0
 12 15  2  0
 15 16  1  0
 16 17  1  0
 17 18  2  0
 17 19  1  0
 19 20  1  0
 20 21  1  0
 20 22  1  0
 15  7  1  0
M  END
>  <HIPPO ID>  (136) 
53666

>  <ref_url>  (136) 
None

>  <ref_pdb>  (136) 
c0270a

>  <inchikey>  (136) 
CPWZOEWXUNUGCV-UHFFFAOYSA-N

>  <original SMILES>  (136) 
COCC(=O)Nc1ccc(O)c(C#N)c1NC(=O)CN(C)C

>  <generation_date>  (136) 
None

>  <tags>  (136) 
[]

>  <ref_mols>  (136) 
c0553a,c0935a

>  <alias>  (136) 
None

>  <original ID>  (136) 
CPWZOEWXUNUGCV-UHFFFAOYSA-N

>  <exports>  (136) 
['/opt/xchem-fragalysis-2/maxwin/CHIKV_HIPPO/hippo_prod/CHIKV_prod11c_recipes/Recipe_1GJWBFH_poses.sdf', '/opt/xchem-fragalysis-2/maxwin/CHIKV_HIPPO/hippo_prod/CHIKV_prod11c_recipes/Recipe_1GJXK8G_poses.sdf', '/opt/xchem-fragalysis-2/maxwin/CHIKV_HIPPO/hippo_prod/CHIKV_prod11c_recipes/Recipe_1GJXW46_poses.sdf']

>  <method>  (136) 
None

>  <submitter_email>  (136) 
None

>  <submitter_name>  (136) 
None

$$$$
JISUOQFUEPURSC-NSHDSACASA-N
     RDKit          3D

 23 24  0  0  0  0  0  0  0  0999 V2000
   11.1635   14.6416    9.7298 C   0  0  0  0  0  0  0  0  0  0  0  0
   12.5057   14.1458    9.7668 O   0  0  0  0  0  0  0  0  0  0  0  0
   12.9092   13.3443   10.8737 C   0  0  0  0  0  0  0  0  0  0  0  0
   13.9036   12.2003   10.6971 C   0  0  0  0  0  0  0  0  0  0  0  0
   14.3358   11.8878    9.6010 O   0  0  0  0  0  0  0  0  0  0  0  0
   14.2662   11.5245   11.8384 N   0  0  0  0  0  0  0  0  0  0  0  0
   14.8924   10.2449   11.8389 C   0  0  0  0  0  0  0  0  0  0  0  0
   15.0166    9.5009   10.6500 C   0  0  0  0  0  0  0  0  0  0  0  0
   15.3570    8.1624   10.6555 C   0  0  0  0  0  0  0  0  0  0  0  0
   15.6429    7.5454   11.8487 C   0  0  0  0  0  0  0  0  0  0  0  0
   16.0576    6.2438   11.7633 O   0  0  0  0  0  0  0  0  0  0  0  0
   15.5787    8.2612   13.0528 C   0  0  0  0  0  0  0  0  0  0  0  0
   16.0412    7.5795   14.2168 C   0  0  0  0  0  0  0  0  0  0  0  0
   16.4871    6.9600   15.0895 N   0  0  0  0  0  0  0  0  0  0  0  0
   15.2128    9.6334   13.0680 C   0  0  0  0  0  0  0  0  0  0  0  0
   15.2382   10.3951   14.2954 N   0  0  0  0  0  0  0  0  0  0  0  0
   15.8531   11.7146   14.2965 C   0  0  0  0  0  0  0  0  0  0  0  0
   14.6676    9.8570   15.4639 C   0  0  0  0  0  0  0  0  0  0  0  0
   13.7419    9.0399   15.3602 O   0  0  0  0  0  0  0  0  0  0  0  0
   15.2685   10.3938   16.8425 C   0  0  2  0  0  0  0  0  0  0  0  0
   16.6508    9.8504   17.2677 C   0  0  0  0  0  0  0  0  0  0  0  0
   15.8619    8.7958   18.0507 C   0  0  0  0  0  0  0  0  0  0  0  0
   14.7030    9.7184   18.0541 N   0  0  0  0  0  0  0  0  0  0  0  0
  1  2  1  0
  2  3  1  0
  3  4  1  0
  4  5  2  0
  4  6  1  0
  6  7  1  0
  7  8  2  0
  8  9  1  0
  9 10  2  0
 10 11  1  0
 10 12  1  0
 12 13  1  0
 13 14  3  0
 12 15  2  0
 15 16  1  0
 16 17  1  0
 16 18  1  0
 18 19  2  0
 20 18  1  6
 20 21  1  0
 21 22  1  0
 22 23  1  0
 15  7  1  0
 23 20  1  0
M  END
>  <HIPPO ID>  (137) 
53911

>  <ref_url>  (137) 
None

>  <ref_pdb>  (137) 
c0270a

>  <inchikey>  (137) 
JISUOQFUEPURSC-NSHDSACASA-N

>  <original SMILES>  (137) 
COCC(=O)Nc1ccc(O)c(C#N)c1N(C)C(=O)[C@@H]1CCN1

>  <generation_date>  (137) 
None

>  <tags>  (137) 
[]

>  <ref_mols>  (137) 
c0553a,c0935a

>  <alias>  (137) 
None

>  <original ID>  (137) 
JISUOQFUEPURSC-NSHDSACASA-N

>  <exports>  (137) 
['/opt/xchem-fragalysis-2/maxwin/CHIKV_HIPPO/hippo_prod/CHIKV_prod11c_recipes/Recipe_1GJWBFH_poses.sdf', '/opt/xchem-fragalysis-2/maxwin/CHIKV_HIPPO/hippo_prod/CHIKV_prod11c_recipes/Recipe_1GJXK8G_poses.sdf', '/opt/xchem-fragalysis-2/maxwin/CHIKV_HIPPO/hippo_prod/CHIKV_prod11c_recipes/Recipe_1GJXW46_poses.sdf']

>  <method>  (137) 
None

>  <submitter_email>  (137) 
None

>  <submitter_name>  (137) 
None

$$$$
JDTWERWWQJXUMJ-UHFFFAOYSA-N
     RDKit          3D

 24 25  0  0  0  0  0  0  0  0999 V2000
   16.4104   10.4785   16.0978 C   0  0  0  0  0  0  0  0  0  0  0  0
   15.7760    9.4798   15.4735 C   0  0  0  0  0  0  0  0  0  0  0  0
   16.3466    8.2279   15.3468 O   0  0  0  0  0  0  0  0  0  0  0  0
   15.8778    7.3287   16.3632 C   0  0  0  0  0  0  0  0  0  0  0  0
   15.0069    6.2433   15.7558 C   0  0  0  0  0  0  0  0  0  0  0  0
   14.3882    9.6903   14.9674 C   0  0  0  0  0  0  0  0  0  0  0  0
   13.4431    9.0722   15.4538 O   0  0  0  0  0  0  0  0  0  0  0  0
   14.1629   10.5322   13.9121 N   0  0  0  0  0  0  0  0  0  0  0  0
   15.1212   10.8114   12.9367 C   0  0  0  0  0  0  0  0  0  0  0  0
   15.8040   12.0173   13.1310 C   0  0  0  0  0  0  0  0  0  0  0  0
   16.8536   12.3586   12.3029 C   0  0  0  0  0  0  0  0  0  0  0  0
   17.1642   11.5213   11.2511 C   0  0  0  0  0  0  0  0  0  0  0  0
   18.3241   11.7153   10.5696 O   0  0  0  0  0  0  0  0  0  0  0  0
   16.3258   10.4580   10.9109 C   0  0  0  0  0  0  0  0  0  0  0  0
   16.5360    9.7640    9.7026 C   0  0  0  0  0  0  0  0  0  0  0  0
   16.4855    9.1022    8.7592 N   0  0  0  0  0  0  0  0  0  0  0  0
   15.3156   10.0276   11.7793 C   0  0  0  0  0  0  0  0  0  0  0  0
   14.6551    8.7668   11.5614 N   0  0  0  0  0  0  0  0  0  0  0  0
   14.8673    7.6704   12.4876 C   0  0  0  0  0  0  0  0  0  0  0  0
   14.3208    6.4857   11.7254 C   0  0  0  0  0  0  0  0  0  0  0  0
   14.2359    5.3520   12.1671 O   0  0  0  0  0  0  0  0  0  0  0  0
   13.9382    6.9053   10.4969 N   0  0  0  0  0  0  0  0  0  0  0  0
   14.1044    8.2492   10.3553 C   0  0  0  0  0  0  0  0  0  0  0  0
   13.5522    9.0401    8.9998 S   0  0  0  0  0  0  0  0  0  0  0  0
  1  2  2  0
  2  3  1  0
  3  4  1  0
  4  5  1  0
  2  6  1  0
  6  7  2  0
  6  8  1  0
  8  9  1  0
  9 10  2  0
 10 11  1  0
 11 12  2  0
 12 13  1  0
 12 14  1  0
 14 15  1  0
 15 16  3  0
 14 17  2  0
 17 18  1  0
 18 19  1  0
 19 20  1  0
 20 21  2  0
 20 22  1  0
 22 23  1  0
 23 24  2  0
 17  9  1  0
 23 18  1  0
M  END
>  <HIPPO ID>  (138) 
53980

>  <ref_url>  (138) 
None

>  <ref_pdb>  (138) 
c0270a

>  <inchikey>  (138) 
JDTWERWWQJXUMJ-UHFFFAOYSA-N

>  <original SMILES>  (138) 
C=C(OCC)C(=O)Nc1ccc(O)c(C#N)c1N1CC(=O)NC1=S

>  <generation_date>  (138) 
None

>  <tags>  (138) 
[]

>  <ref_mols>  (138) 
c0553a,c0935a

>  <alias>  (138) 
None

>  <original ID>  (138) 
JDTWERWWQJXUMJ-UHFFFAOYSA-N

>  <exports>  (138) 
['/opt/xchem-fragalysis-2/maxwin/CHIKV_HIPPO/hippo_prod/CHIKV_prod11c_recipes/Recipe_1GJWBFH_poses.sdf', '/opt/xchem-fragalysis-2/maxwin/CHIKV_HIPPO/hippo_prod/CHIKV_prod11c_recipes/Recipe_1GJXK8G_poses.sdf', '/opt/xchem-fragalysis-2/maxwin/CHIKV_HIPPO/hippo_prod/CHIKV_prod11c_recipes/Recipe_1GJXW46_poses.sdf']

>  <method>  (138) 
None

>  <submitter_email>  (138) 
None

>  <submitter_name>  (138) 
None

$$$$
QSFDRLNGCTXARP-UHFFFAOYSA-N
     RDKit          3D

 24 25  0  0  0  0  0  0  0  0999 V2000
   16.4781   10.1574   16.2089 C   0  0  0  0  0  0  0  0  0  0  0  0
   15.9512    9.1148   15.5426 C   0  0  0  0  0  0  0  0  0  0  0  0
   16.5810    7.9317   15.2319 O   0  0  0  0  0  0  0  0  0  0  0  0
   17.5262    7.4934   16.2131 C   0  0  0  0  0  0  0  0  0  0  0  0
   17.8903    6.0444   15.9572 C   0  0  0  0  0  0  0  0  0  0  0  0
   14.4897    9.2384   15.2625 C   0  0  0  0  0  0  0  0  0  0  0  0
   13.6635    8.9819   16.1332 O   0  0  0  0  0  0  0  0  0  0  0  0
   14.0750    9.7999   14.0911 N   0  0  0  0  0  0  0  0  0  0  0  0
   14.9048   10.1289   13.0348 C   0  0  0  0  0  0  0  0  0  0  0  0
   15.2546   11.4842   12.9389 C   0  0  0  0  0  0  0  0  0  0  0  0
   16.2430   11.8554   12.0527 C   0  0  0  0  0  0  0  0  0  0  0  0
   16.7250   10.9154   11.1620 C   0  0  0  0  0  0  0  0  0  0  0  0
   17.7659   11.3196   10.3854 O   0  0  0  0  0  0  0  0  0  0  0  0
   16.1398    9.6424   11.0805 C   0  0  0  0  0  0  0  0  0  0  0  0
   15.9186    9.1679    9.7643 C   0  0  0  0  0  0  0  0  0  0  0  0
   15.5128    8.9271    8.7121 N   0  0  0  0  0  0  0  0  0  0  0  0
   15.3358    9.1449   12.1170 C   0  0  0  0  0  0  0  0  0  0  0  0
   14.9396    7.7361   12.2771 N   0  0  0  0  0  0  0  0  0  0  0  0
   13.6692    7.3446   11.9521 C   0  0  0  0  0  0  0  0  0  0  0  0
   12.7670    7.0891   12.7460 O   0  0  0  0  0  0  0  0  0  0  0  0
   13.6094    6.8498   10.5224 C   0  0  0  0  0  0  0  0  0  0  0  0
   14.9266    6.3140   10.5284 N   0  0  0  0  0  0  0  0  0  0  0  0
   15.5825    6.7038   11.6739 C   0  0  0  0  0  0  0  0  0  0  0  0
   16.7074    5.7027   12.3572 S   0  0  0  0  0  0  0  0  0  0  0  0
  1  2  2  0
  2  3  1  0
  3  4  1  0
  4  5  1  0
  2  6  1  0
  6  7  2  0
  6  8  1  0
  8  9  1  0
  9 10  2  0
 10 11  1  0
 11 12  2  0
 12 13  1  0
 12 14  1  0
 14 15  1  0
 15 16  3  0
 14 17  2  0
 17 18  1  0
 18 19  1  0
 19 20  2  0
 19 21  1  0
 21 22  1  0
 22 23  1  0
 23 24  2  0
 17  9  1  0
 23 18  1  0
M  END
>  <HIPPO ID>  (139) 
53984

>  <ref_url>  (139) 
None

>  <ref_pdb>  (139) 
c0270a

>  <inchikey>  (139) 
QSFDRLNGCTXARP-UHFFFAOYSA-N

>  <original SMILES>  (139) 
C=C(OCC)C(=O)Nc1ccc(O)c(C#N)c1N1C(=O)CNC1=S

>  <generation_date>  (139) 
None

>  <tags>  (139) 
[]

>  <ref_mols>  (139) 
c0553a,c0935a

>  <alias>  (139) 
None

>  <original ID>  (139) 
QSFDRLNGCTXARP-UHFFFAOYSA-N

>  <exports>  (139) 
['/opt/xchem-fragalysis-2/maxwin/CHIKV_HIPPO/hippo_prod/CHIKV_prod11c_recipes/Recipe_1GJWBFH_poses.sdf', '/opt/xchem-fragalysis-2/maxwin/CHIKV_HIPPO/hippo_prod/CHIKV_prod11c_recipes/Recipe_1GJXK8G_poses.sdf', '/opt/xchem-fragalysis-2/maxwin/CHIKV_HIPPO/hippo_prod/CHIKV_prod11c_recipes/Recipe_1GJXW46_poses.sdf']

>  <method>  (139) 
None

>  <submitter_email>  (139) 
None

>  <submitter_name>  (139) 
None

$$$$
XGSUFIKJTHWXHD-SECBINFHSA-N
     RDKit          3D

 24 25  0  0  0  0  0  0  0  0999 V2000
   16.4592   10.6451   16.2688 C   0  0  0  0  0  0  0  0  0  0  0  0
   15.8998    9.4841   15.9162 C   0  0  0  0  0  0  0  0  0  0  0  0
   16.6148    8.3078   16.0764 O   0  0  0  0  0  0  0  0  0  0  0  0
   15.9464    7.3600   16.9073 C   0  0  0  0  0  0  0  0  0  0  0  0
   14.4924    9.4589   15.4079 C   0  0  0  0  0  0  0  0  0  0  0  0
   13.6346    8.7399   15.9152 O   0  0  0  0  0  0  0  0  0  0  0  0
   14.1359   10.2319   14.3409 N   0  0  0  0  0  0  0  0  0  0  0  0
   14.9843   10.4485   13.2511 C   0  0  0  0  0  0  0  0  0  0  0  0
   15.5349   11.7301   13.1672 C   0  0  0  0  0  0  0  0  0  0  0  0
   16.4337   12.0064   12.1617 C   0  0  0  0  0  0  0  0  0  0  0  0
   16.6328   11.0673   11.1681 C   0  0  0  0  0  0  0  0  0  0  0  0
   17.6655   11.3410   10.3264 O   0  0  0  0  0  0  0  0  0  0  0  0
   15.8509    9.9067   11.1014 C   0  0  0  0  0  0  0  0  0  0  0  0
   15.6725    9.3310    9.8227 C   0  0  0  0  0  0  0  0  0  0  0  0
   15.4578    9.0024    8.7385 N   0  0  0  0  0  0  0  0  0  0  0  0
   15.1281    9.4848   12.2255 C   0  0  0  0  0  0  0  0  0  0  0  0
   14.9028    8.0829   12.5208 N   0  0  0  0  0  0  0  0  0  0  0  0
   15.8728    7.4027   13.3721 C   0  0  0  0  0  0  0  0  0  0  0  0
   16.3807    6.0735   12.7974 C   0  0  0  0  0  0  0  0  0  0  0  0
   16.1874    6.0508   11.3503 N   0  0  0  0  0  0  0  0  0  0  0  0
   14.7171    6.0147   11.1770 C   0  0  2  0  0  0  0  0  0  0  0  0
   14.2184    6.0068    9.7669 C   0  0  0  0  0  0  0  0  0  0  0  0
   14.0535    7.1917   11.8689 C   0  0  0  0  0  0  0  0  0  0  0  0
   12.8414    7.1259   12.0379 O   0  0  0  0  0  0  0  0  0  0  0  0
  1  2  2  0
  2  3  1  0
  3  4  1  0
  2  5  1  0
  5  6  2  0
  5  7  1  0
  7  8  1  0
  8  9  2  0
  9 10  1  0
 10 11  2  0
 11 12  1  0
 11 13  1  0
 13 14  1  0
 14 15  3  0
 13 16  2  0
 16 17  1  0
 17 18  1  0
 18 19  1  0
 19 20  1  0
 20 21  1  0
 21 22  1  6
 21 23  1  0
 23 24  2  0
 16  8  1  0
 23 17  1  0
M  END
>  <HIPPO ID>  (140) 
54038

>  <ref_url>  (140) 
None

>  <ref_pdb>  (140) 
c0270a

>  <inchikey>  (140) 
XGSUFIKJTHWXHD-SECBINFHSA-N

>  <original SMILES>  (140) 
C=C(OC)C(=O)Nc1ccc(O)c(C#N)c1N1CCN[C@H](C)C1=O

>  <generation_date>  (140) 
None

>  <tags>  (140) 
[]

>  <ref_mols>  (140) 
c0553a,c0935a

>  <alias>  (140) 
None

>  <original ID>  (140) 
XGSUFIKJTHWXHD-SECBINFHSA-N

>  <exports>  (140) 
['/opt/xchem-fragalysis-2/maxwin/CHIKV_HIPPO/hippo_prod/CHIKV_prod11c_recipes/Recipe_1GJXW46_poses.sdf']

>  <method>  (140) 
None

>  <submitter_email>  (140) 
None

>  <submitter_name>  (140) 
None

$$$$
XGSUFIKJTHWXHD-SECBINFHSA-N
     RDKit          3D

 24 25  0  0  0  0  0  0  0  0999 V2000
   16.5752   10.2856   16.5136 C   0  0  0  0  0  0  0  0  0  0  0  0
   16.0651    9.3349   15.7194 C   0  0  0  0  0  0  0  0  0  0  0  0
   16.7766    8.3087   15.1317 O   0  0  0  0  0  0  0  0  0  0  0  0
   17.5605    7.5658   16.0624 C   0  0  0  0  0  0  0  0  0  0  0  0
   14.5954    9.3418   15.4851 C   0  0  0  0  0  0  0  0  0  0  0  0
   13.8227    8.9479   16.3531 O   0  0  0  0  0  0  0  0  0  0  0  0
   14.1319    9.6425   14.2399 N   0  0  0  0  0  0  0  0  0  0  0  0
   14.9136   10.1782   13.2193 C   0  0  0  0  0  0  0  0  0  0  0  0
   15.3784   11.4933   13.3752 C   0  0  0  0  0  0  0  0  0  0  0  0
   16.3110   12.0136   12.4886 C   0  0  0  0  0  0  0  0  0  0  0  0
   16.6911   11.2639   11.3937 C   0  0  0  0  0  0  0  0  0  0  0  0
   17.7253   11.7471   10.6519 O   0  0  0  0  0  0  0  0  0  0  0  0
   16.0420   10.0638   11.1198 C   0  0  0  0  0  0  0  0  0  0  0  0
   15.9781    9.6215    9.7702 C   0  0  0  0  0  0  0  0  0  0  0  0
   15.7907    9.3004    8.6779 N   0  0  0  0  0  0  0  0  0  0  0  0
   15.2540    9.4234   12.0963 C   0  0  0  0  0  0  0  0  0  0  0  0
   14.9867    8.0244   11.9609 N   0  0  0  0  0  0  0  0  0  0  0  0
   16.0942    7.1047   11.8594 C   0  0  0  0  0  0  0  0  0  0  0  0
   15.7024    5.6056   11.8858 C   0  0  0  0  0  0  0  0  0  0  0  0
   14.5884    5.2736   10.9931 N   0  0  0  0  0  0  0  0  0  0  0  0
   13.5812    6.3606   10.9800 C   0  0  2  0  0  0  0  0  0  0  0  0
   13.7065    7.1013    9.6615 C   0  0  0  0  0  0  0  0  0  0  0  0
   13.8065    7.3314   12.1441 C   0  0  0  0  0  0  0  0  0  0  0  0
   13.1141    7.3514   13.1515 O   0  0  0  0  0  0  0  0  0  0  0  0
  1  2  2  0
  2  3  1  0
  3  4  1  0
  2  5  1  0
  5  6  2  0
  5  7  1  0
  7  8  1  0
  8  9  2  0
  9 10  1  0
 10 11  2  0
 11 12  1  0
 11 13  1  0
 13 14  1  0
 14 15  3  0
 13 16  2  0
 16 17  1  0
 17 18  1  0
 18 19  1  0
 19 20  1  0
 20 21  1  0
 21 22  1  6
 21 23  1  0
 23 24  2  0
 16  8  1  0
 23 17  1  0
M  END
>  <HIPPO ID>  (141) 
54039

>  <ref_url>  (141) 
None

>  <ref_pdb>  (141) 
c0270a

>  <inchikey>  (141) 
XGSUFIKJTHWXHD-SECBINFHSA-N

>  <original SMILES>  (141) 
C=C(OC)C(=O)Nc1ccc(O)c(C#N)c1N1CCN[C@H](C)C1=O

>  <generation_date>  (141) 
None

>  <tags>  (141) 
[]

>  <ref_mols>  (141) 
c0553a,c0935a

>  <alias>  (141) 
None

>  <original ID>  (141) 
XGSUFIKJTHWXHD-SECBINFHSA-N

>  <exports>  (141) 
['/opt/xchem-fragalysis-2/maxwin/CHIKV_HIPPO/hippo_prod/CHIKV_prod11c_recipes/Recipe_1GJXW46_poses.sdf']

>  <method>  (141) 
None

>  <submitter_email>  (141) 
None

>  <submitter_name>  (141) 
None

$$$$
UEOVRICYOUGFIA-UHFFFAOYSA-N
     RDKit          3D

 24 25  0  0  0  0  0  0  0  0999 V2000
   16.4589   10.4190   16.5135 C   0  0  0  0  0  0  0  0  0  0  0  0
   16.0511    9.3865   15.7641 C   0  0  0  0  0  0  0  0  0  0  0  0
   16.8213    8.3042   15.4080 O   0  0  0  0  0  0  0  0  0  0  0  0
   17.6584    7.7655   16.4263 C   0  0  0  0  0  0  0  0  0  0  0  0
   17.9872    6.3285   16.0595 C   0  0  0  0  0  0  0  0  0  0  0  0
   14.6232    9.3302   15.3333 C   0  0  0  0  0  0  0  0  0  0  0  0
   13.7439    8.9519   16.1044 O   0  0  0  0  0  0  0  0  0  0  0  0
   14.3210    9.5037   14.0176 N   0  0  0  0  0  0  0  0  0  0  0  0
   15.1099   10.1094   13.0436 C   0  0  0  0  0  0  0  0  0  0  0  0
   15.6450   11.3759   13.3082 C   0  0  0  0  0  0  0  0  0  0  0  0
   16.5347   11.9467   12.4183 C   0  0  0  0  0  0  0  0  0  0  0  0
   16.8218   11.2820   11.2448 C   0  0  0  0  0  0  0  0  0  0  0  0
   17.9076   11.7400   10.5651 O   0  0  0  0  0  0  0  0  0  0  0  0
   16.0739   10.1721   10.8596 C   0  0  0  0  0  0  0  0  0  0  0  0
   16.1621    9.6634    9.5493 C   0  0  0  0  0  0  0  0  0  0  0  0
   16.1237    9.1484    8.5209 N   0  0  0  0  0  0  0  0  0  0  0  0
   15.2673    9.5071   11.7866 C   0  0  0  0  0  0  0  0  0  0  0  0
   14.7887    8.1900   11.4969 N   0  0  0  0  0  0  0  0  0  0  0  0
   15.2479    7.0501   12.0870 C   0  0  0  0  0  0  0  0  0  0  0  0
   15.9594    7.0153   13.1442 N   0  0  0  0  0  0  0  0  0  0  0  0
   14.8651    5.9540   11.3979 N   0  0  0  0  0  0  0  0  0  0  0  0
   13.9666    6.3269   10.3250 C   0  0  0  0  0  0  0  0  0  0  0  0
   14.0483    7.8417   10.3726 C   0  0  0  0  0  0  0  0  0  0  0  0
   13.4633    8.5802    9.5967 O   0  0  0  0  0  0  0  0  0  0  0  0
  1  2  2  0
  2  3  1  0
  3  4  1  0
  4  5  1  0
  2  6  1  0
  6  7  2  0
  6  8  1  0
  8  9  1  0
  9 10  2  0
 10 11  1  0
 11 12  2  0
 12 13  1  0
 12 14  1  0
 14 15  1  0
 15 16  3  0
 14 17  2  0
 17 18  1  0
 18 19  1  0
 19 20  2  3
 19 21  1  0
 21 22  1  0
 22 23  1  0
 23 24  2  0
 17  9  1  0
 23 18  1  0
M  END
>  <HIPPO ID>  (142) 
54180

>  <ref_url>  (142) 
None

>  <ref_pdb>  (142) 
c0270a

>  <inchikey>  (142) 
UEOVRICYOUGFIA-UHFFFAOYSA-N

>  <original SMILES>  (142) 
C=C(OCC)C(=O)Nc1ccc(O)c(C#N)c1N1C(=N)NCC1=O

>  <generation_date>  (142) 
None

>  <tags>  (142) 
[]

>  <ref_mols>  (142) 
c0553a,c0935a

>  <alias>  (142) 
None

>  <original ID>  (142) 
UEOVRICYOUGFIA-UHFFFAOYSA-N

>  <exports>  (142) 
['/opt/xchem-fragalysis-2/maxwin/CHIKV_HIPPO/hippo_prod/CHIKV_prod11c_recipes/Recipe_1GJXK8G_poses.sdf', '/opt/xchem-fragalysis-2/maxwin/CHIKV_HIPPO/hippo_prod/CHIKV_prod11c_recipes/Recipe_1GJXW46_poses.sdf']

>  <method>  (142) 
None

>  <submitter_email>  (142) 
None

>  <submitter_name>  (142) 
None

$$$$
PDKZOKQKVPLEFI-UHFFFAOYSA-N
     RDKit          3D

 24 25  0  0  0  0  0  0  0  0999 V2000
   16.3837   10.4641   16.1710 C   0  0  0  0  0  0  0  0  0  0  0  0
   15.8333    9.4427   15.4966 C   0  0  0  0  0  0  0  0  0  0  0  0
   16.3801    8.1889   15.3297 O   0  0  0  0  0  0  0  0  0  0  0  0
   17.1731    7.7045   16.4161 C   0  0  0  0  0  0  0  0  0  0  0  0
   17.4177    6.2240   16.1898 C   0  0  0  0  0  0  0  0  0  0  0  0
   14.4394    9.6265   14.9809 C   0  0  0  0  0  0  0  0  0  0  0  0
   13.5092    8.9626   15.4352 O   0  0  0  0  0  0  0  0  0  0  0  0
   14.1999   10.5229   13.9736 N   0  0  0  0  0  0  0  0  0  0  0  0
   15.1435   10.7773   12.9731 C   0  0  0  0  0  0  0  0  0  0  0  0
   15.8434   11.9777   13.1216 C   0  0  0  0  0  0  0  0  0  0  0  0
   16.8757   12.2768   12.2579 C   0  0  0  0  0  0  0  0  0  0  0  0
   17.1361   11.4144   11.2103 C   0  0  0  0  0  0  0  0  0  0  0  0
   18.2783   11.5768   10.4945 O   0  0  0  0  0  0  0  0  0  0  0  0
   16.2718   10.3573   10.9147 C   0  0  0  0  0  0  0  0  0  0  0  0
   16.3618    9.6987    9.6617 C   0  0  0  0  0  0  0  0  0  0  0  0
   16.2381    9.0660    8.7029 N   0  0  0  0  0  0  0  0  0  0  0  0
   15.3078    9.9378   11.8468 C   0  0  0  0  0  0  0  0  0  0  0  0
   14.5876    8.7267   11.6922 N   0  0  0  0  0  0  0  0  0  0  0  0
   14.9941    7.5763   12.5093 C   0  0  0  0  0  0  0  0  0  0  0  0
   14.4956    6.4050   11.6722 C   0  0  0  0  0  0  0  0  0  0  0  0
   14.5006    5.2343   12.0133 O   0  0  0  0  0  0  0  0  0  0  0  0
   14.0471    6.8980   10.4863 N   0  0  0  0  0  0  0  0  0  0  0  0
   14.0924    8.2419   10.4926 C   0  0  0  0  0  0  0  0  0  0  0  0
   13.6621    8.9025    9.4823 N   0  0  0  0  0  0  0  0  0  0  0  0
  1  2  2  0
  2  3  1  0
  3  4  1  0
  4  5  1  0
  2  6  1  0
  6  7  2  0
  6  8  1  0
  8  9  1  0
  9 10  2  0
 10 11  1  0
 11 12  2  0
 12 13  1  0
 12 14  1  0
 14 15  1  0
 15 16  3  0
 14 17  2  0
 17 18  1  0
 18 19  1  0
 19 20  1  0
 20 21  2  0
 20 22  1  0
 22 23  1  0
 23 24  2  3
 17  9  1  0
 23 18  1  0
M  END
>  <HIPPO ID>  (143) 
54181

>  <ref_url>  (143) 
None

>  <ref_pdb>  (143) 
c0270a

>  <inchikey>  (143) 
PDKZOKQKVPLEFI-UHFFFAOYSA-N

>  <original SMILES>  (143) 
C=C(OCC)C(=O)Nc1ccc(O)c(C#N)c1N1CC(=O)NC1=N

>  <generation_date>  (143) 
None

>  <tags>  (143) 
[]

>  <ref_mols>  (143) 
c0553a,c0935a

>  <alias>  (143) 
None

>  <original ID>  (143) 
PDKZOKQKVPLEFI-UHFFFAOYSA-N

>  <exports>  (143) 
['/opt/xchem-fragalysis-2/maxwin/CHIKV_HIPPO/hippo_prod/CHIKV_prod11c_recipes/Recipe_1GJXK8G_poses.sdf', '/opt/xchem-fragalysis-2/maxwin/CHIKV_HIPPO/hippo_prod/CHIKV_prod11c_recipes/Recipe_1GJXW46_poses.sdf']

>  <method>  (143) 
None

>  <submitter_email>  (143) 
None

>  <submitter_name>  (143) 
None

$$$$
UAZKTNKESANRQZ-GFCCVEGCSA-N
     RDKit          3D

 24 25  0  0  0  0  0  0  0  0999 V2000
   14.2632   13.6714   13.5742 C   0  0  0  0  0  0  0  0  0  0  0  0
   15.1509   13.5322   12.5809 C   0  0  0  0  0  0  0  0  0  0  0  0
   16.4036   14.0864   12.5153 O   0  0  0  0  0  0  0  0  0  0  0  0
   16.6982   15.0943   13.4754 C   0  0  0  0  0  0  0  0  0  0  0  0
   14.8152   12.4822   11.5721 C   0  0  0  0  0  0  0  0  0  0  0  0
   13.8313   12.5260   10.8492 O   0  0  0  0  0  0  0  0  0  0  0  0
   15.6840   11.4151   11.7275 N   0  0  0  0  0  0  0  0  0  0  0  0
   15.2739   10.1220   11.3769 C   0  0  0  0  0  0  0  0  0  0  0  0
   14.9580    9.9282   10.0219 C   0  0  0  0  0  0  0  0  0  0  0  0
   14.6151    8.6827    9.5445 C   0  0  0  0  0  0  0  0  0  0  0  0
   14.7307    7.6056   10.3974 C   0  0  0  0  0  0  0  0  0  0  0  0
   14.4951    6.3517    9.9093 O   0  0  0  0  0  0  0  0  0  0  0  0
   15.1122    7.7681   11.7430 C   0  0  0  0  0  0  0  0  0  0  0  0
   15.5253    6.5879   12.4390 C   0  0  0  0  0  0  0  0  0  0  0  0
   16.0004    5.6756   12.9793 N   0  0  0  0  0  0  0  0  0  0  0  0
   15.2478    9.0565   12.3146 C   0  0  0  0  0  0  0  0  0  0  0  0
   15.3049    9.2575   13.7886 N   0  0  0  0  0  0  0  0  0  0  0  0
   14.9377   10.5607   14.3211 C   0  0  0  0  0  0  0  0  0  0  0  0
   14.7616    8.2545   14.6405 C   0  0  0  0  0  0  0  0  0  0  0  0
   13.6889    7.7094   14.3473 O   0  0  0  0  0  0  0  0  0  0  0  0
   15.5169    7.9831   15.9947 C   0  0  1  0  0  0  0  0  0  0  0  0
   16.7652    7.0765   15.9790 C   0  0  0  0  0  0  0  0  0  0  0  0
   17.2918    8.0144   17.0732 C   0  0  0  0  0  0  0  0  0  0  0  0
   16.4165    9.0760   16.5116 N   0  0  0  0  0  0  0  0  0  0  0  0
  1  2  2  0
  2  3  1  0
  3  4  1  0
  2  5  1  0
  5  6  2  0
  5  7  1  0
  7  8  1  0
  8  9  2  0
  9 10  1  0
 10 11  2  0
 11 12  1  0
 11 13  1  0
 13 14  1  0
 14 15  3  0
 13 16  2  0
 16 17  1  0
 17 18  1  0
 17 19  1  0
 19 20  2  0
 21 19  1  6
 21 22  1  0
 22 23  1  0
 23 24  1  0
 16  8  1  0
 24 21  1  0
M  END
>  <HIPPO ID>  (144) 
54235

>  <ref_url>  (144) 
None

>  <ref_pdb>  (144) 
c0270a

>  <inchikey>  (144) 
UAZKTNKESANRQZ-GFCCVEGCSA-N

>  <original SMILES>  (144) 
C=C(OC)C(=O)Nc1ccc(O)c(C#N)c1N(C)C(=O)[C@H]1CCN1

>  <generation_date>  (144) 
None

>  <tags>  (144) 
[]

>  <ref_mols>  (144) 
c0553a,c0935a

>  <alias>  (144) 
None

>  <original ID>  (144) 
UAZKTNKESANRQZ-GFCCVEGCSA-N

>  <exports>  (144) 
['/opt/xchem-fragalysis-2/maxwin/CHIKV_HIPPO/hippo_prod/CHIKV_prod11c_recipes/Recipe_1GJXW46_poses.sdf']

>  <method>  (144) 
None

>  <submitter_email>  (144) 
None

>  <submitter_name>  (144) 
None

$$$$
NTTCSCYPYUHYOE-GFCCVEGCSA-N
     RDKit          3D

 24 25  0  0  0  0  0  0  0  0999 V2000
   17.4679    8.9070   18.8072 C   0  0  0  0  0  0  0  0  0  0  0  0
   17.1423    8.9042   17.5068 C   0  0  0  0  0  0  0  0  0  0  0  0
   17.5878    8.0170   16.5400 O   0  0  0  0  0  0  0  0  0  0  0  0
   18.5643    7.0615   16.9319 C   0  0  0  0  0  0  0  0  0  0  0  0
   16.2197    9.9984   17.0292 C   0  0  0  0  0  0  0  0  0  0  0  0
   15.5314   10.6845   17.7704 O   0  0  0  0  0  0  0  0  0  0  0  0
   16.2392   10.0407   15.6612 N   0  0  0  0  0  0  0  0  0  0  0  0
   15.5950   10.9261   14.8032 C   0  0  0  0  0  0  0  0  0  0  0  0
   15.3466   12.2299   15.2529 C   0  0  0  0  0  0  0  0  0  0  0  0
   14.9682   13.2111   14.3621 C   0  0  0  0  0  0  0  0  0  0  0  0
   14.8177   12.8794   13.0323 C   0  0  0  0  0  0  0  0  0  0  0  0
   14.5797   13.9470   12.2119 O   0  0  0  0  0  0  0  0  0  0  0  0
   14.9621   11.5517   12.5786 C   0  0  0  0  0  0  0  0  0  0  0  0
   14.6968   11.4085   11.1926 C   0  0  0  0  0  0  0  0  0  0  0  0
   14.3903   11.5121   10.0785 N   0  0  0  0  0  0  0  0  0  0  0  0
   15.3456   10.5120   13.4646 C   0  0  0  0  0  0  0  0  0  0  0  0
   15.5221    9.1155   13.0918 N   0  0  0  0  0  0  0  0  0  0  0  0
   15.4013    7.9520   13.9733 C   0  0  0  0  0  0  0  0  0  0  0  0
   14.1725    7.5340   13.2041 C   0  0  0  0  0  0  0  0  0  0  0  0
   14.7560    8.4038   12.0730 C   0  0  2  0  0  0  0  0  0  0  0  0
   15.4454    7.5513   10.9766 C   0  0  0  0  0  0  0  0  0  0  0  0
   16.0730    6.5092   11.1893 O   0  0  0  0  0  0  0  0  0  0  0  0
   15.1235    7.9521    9.6966 N   0  0  0  0  0  0  0  0  0  0  0  0
   15.7311    9.1522    9.1752 C   0  0  0  0  0  0  0  0  0  0  0  0
  1  2  2  0
  2  3  1  0
  3  4  1  0
  2  5  1  0
  5  6  2  0
  5  7  1  0
  7  8  1  0
  8  9  2  0
  9 10  1  0
 10 11  2  0
 11 12  1  0
 11 13  1  0
 13 14  1  0
 14 15  3  0
 13 16  2  0
 16 17  1  0
 17 18  1  0
 18 19  1  0
 19 20  1  0
 20 21  1  6
 21 22  2  0
 21 23  1  0
 23 24  1  0
 16  8  1  0
 20 17  1  0
M  END
>  <HIPPO ID>  (145) 
54236

>  <ref_url>  (145) 
None

>  <ref_pdb>  (145) 
c0270a

>  <inchikey>  (145) 
NTTCSCYPYUHYOE-GFCCVEGCSA-N

>  <original SMILES>  (145) 
C=C(OC)C(=O)Nc1ccc(O)c(C#N)c1N1CC[C@@H]1C(=O)NC

>  <generation_date>  (145) 
None

>  <tags>  (145) 
[]

>  <ref_mols>  (145) 
c0553a,c0935a

>  <alias>  (145) 
None

>  <original ID>  (145) 
NTTCSCYPYUHYOE-GFCCVEGCSA-N

>  <exports>  (145) 
['/opt/xchem-fragalysis-2/maxwin/CHIKV_HIPPO/hippo_prod/CHIKV_prod11c_recipes/Recipe_1GJXW46_poses.sdf']

>  <method>  (145) 
None

>  <submitter_email>  (145) 
None

>  <submitter_name>  (145) 
None

$$$$
QAELTRLPDAWWFI-UHFFFAOYSA-N
     RDKit          3D

 24 24  0  0  0  0  0  0  0  0999 V2000
   14.1227   13.1523   13.8493 C   0  0  0  0  0  0  0  0  0  0  0  0
   14.8417   13.3957   12.7412 C   0  0  0  0  0  0  0  0  0  0  0  0
   15.7103   14.4341   12.5310 O   0  0  0  0  0  0  0  0  0  0  0  0
   15.7952   15.4289   13.5417 C   0  0  0  0  0  0  0  0  0  0  0  0
   14.7227   12.3714   11.6524 C   0  0  0  0  0  0  0  0  0  0  0  0
   14.2067   12.6068   10.5698 O   0  0  0  0  0  0  0  0  0  0  0  0
   15.2397   11.1709   12.0770 N   0  0  0  0  0  0  0  0  0  0  0  0
   15.0967    9.9329   11.4429 C   0  0  0  0  0  0  0  0  0  0  0  0
   14.7371    9.8156   10.0970 C   0  0  0  0  0  0  0  0  0  0  0  0
   14.4906    8.5712    9.5391 C   0  0  0  0  0  0  0  0  0  0  0  0
   14.6805    7.4394   10.3118 C   0  0  0  0  0  0  0  0  0  0  0  0
   14.4177    6.2106    9.7819 O   0  0  0  0  0  0  0  0  0  0  0  0
   15.1508    7.5287   11.6248 C   0  0  0  0  0  0  0  0  0  0  0  0
   15.4724    6.3347   12.3320 C   0  0  0  0  0  0  0  0  0  0  0  0
   15.8310    5.4054   12.9276 N   0  0  0  0  0  0  0  0  0  0  0  0
   15.3218    8.7828   12.2190 C   0  0  0  0  0  0  0  0  0  0  0  0
   15.7941    8.9140   13.5583 N   0  0  0  0  0  0  0  0  0  0  0  0
   14.9294    9.1590   14.6297 C   0  0  0  0  0  0  0  0  0  0  0  0
   13.7648    9.5317   14.5349 O   0  0  0  0  0  0  0  0  0  0  0  0
   15.6651    9.0113   15.9996 C   0  0  0  0  0  0  0  0  0  0  0  0
   16.2662   10.3947   16.3004 C   0  0  0  0  0  0  0  0  0  0  0  0
   14.6930    8.6469   17.1269 C   0  0  0  0  0  0  0  0  0  0  0  0
   16.7833    8.0357   15.8342 N   0  0  0  0  0  0  0  0  0  0  0  0
   16.3860    6.6347   15.9877 C   0  0  0  0  0  0  0  0  0  0  0  0
  1  2  2  0
  2  3  1  0
  3  4  1  0
  2  5  1  0
  5  6  2  0
  5  7  1  0
  7  8  1  0
  8  9  2  0
  9 10  1  0
 10 11  2  0
 11 12  1  0
 11 13  1  0
 13 14  1  0
 14 15  3  0
 13 16  2  0
 16 17  1  0
 17 18  1  0
 18 19  2  0
 18 20  1  0
 20 21  1  0
 20 22  1  0
 20 23  1  0
 23 24  1  0
 16  8  1  0
M  END
>  <HIPPO ID>  (146) 
54340

>  <ref_url>  (146) 
None

>  <ref_pdb>  (146) 
c0270a

>  <inchikey>  (146) 
QAELTRLPDAWWFI-UHFFFAOYSA-N

>  <original SMILES>  (146) 
C=C(OC)C(=O)Nc1ccc(O)c(C#N)c1NC(=O)C(C)(C)NC

>  <generation_date>  (146) 
None

>  <tags>  (146) 
[]

>  <ref_mols>  (146) 
c0553a,c0935a

>  <alias>  (146) 
None

>  <original ID>  (146) 
QAELTRLPDAWWFI-UHFFFAOYSA-N

>  <exports>  (146) 
['/opt/xchem-fragalysis-2/maxwin/CHIKV_HIPPO/hippo_prod/CHIKV_prod11c_recipes/Recipe_1GJXW46_poses.sdf']

>  <method>  (146) 
None

>  <submitter_email>  (146) 
None

>  <submitter_name>  (146) 
None

$$$$
KYBOJVPYOMLTIL-UHFFFAOYSA-N
     RDKit          3D

 24 25  0  0  0  0  0  0  0  0999 V2000
   15.0434    6.6923   15.9373 C   0  0  0  0  0  0  0  0  0  0  0  0
   16.0672    7.7152   16.1115 N   0  0  0  0  0  0  0  0  0  0  0  0
   17.1856    7.4579   15.2282 C   0  0  0  0  0  0  0  0  0  0  0  0
   15.5285    9.0864   16.0402 C   0  0  0  0  0  0  0  0  0  0  0  0
   14.7365    9.3497   14.7572 C   0  0  0  0  0  0  0  0  0  0  0  0
   13.5894    8.9514   14.5883 O   0  0  0  0  0  0  0  0  0  0  0  0
   15.4704   10.0472   13.8295 N   0  0  0  0  0  0  0  0  0  0  0  0
   15.3406    9.9973   12.4221 C   0  0  0  0  0  0  0  0  0  0  0  0
   15.9930   11.0064   11.7281 C   0  0  0  0  0  0  0  0  0  0  0  0
   16.9193   11.7818   12.4596 N   0  0  0  0  0  0  0  0  0  0  0  0
   17.6072   12.8248   11.9027 C   0  0  0  0  0  0  0  0  0  0  0  0
   17.1613   13.9625   11.9286 O   0  0  0  0  0  0  0  0  0  0  0  0
   18.9918   12.4989   11.4453 C   0  0  0  0  0  0  0  0  0  0  0  0
   19.3777   11.3687   10.8501 C   0  0  0  0  0  0  0  0  0  0  0  0
   20.8549   11.3899   10.6990 C   0  0  0  0  0  0  0  0  0  0  0  0
   21.1431   12.8562   10.9614 C   0  0  0  0  0  0  0  0  0  0  0  0
   20.0126   13.4140   11.6633 O   0  0  0  0  0  0  0  0  0  0  0  0
   15.9870   11.0065   10.3398 C   0  0  0  0  0  0  0  0  0  0  0  0
   15.2438   10.1270    9.5907 C   0  0  0  0  0  0  0  0  0  0  0  0
   14.6607    9.0966   10.2662 C   0  0  0  0  0  0  0  0  0  0  0  0
   13.9441    8.1866    9.5671 O   0  0  0  0  0  0  0  0  0  0  0  0
   14.8100    8.9569   11.6578 C   0  0  0  0  0  0  0  0  0  0  0  0
   14.7635    7.6228   12.1574 C   0  0  0  0  0  0  0  0  0  0  0  0
   14.9419    6.5195   12.4705 N   0  0  0  0  0  0  0  0  0  0  0  0
  1  2  1  0
  2  3  1  0
  2  4  1  0
  4  5  1  0
  5  6  2  0
  5  7  1  0
  7  8  1  0
  8  9  2  0
  9 10  1  0
 10 11  1  0
 11 12  2  0
 11 13  1  0
 13 14  2  0
 14 15  1  0
 15 16  1  0
 16 17  1  0
  9 18  1  0
 18 19  2  0
 19 20  1  0
 20 21  1  0
 20 22  2  0
 22 23  1  0
 23 24  3  0
 22  8  1  0
 17 13  1  0
M  END
>  <HIPPO ID>  (147) 
54748

>  <ref_url>  (147) 
None

>  <ref_pdb>  (147) 
c0270a

>  <inchikey>  (147) 
KYBOJVPYOMLTIL-UHFFFAOYSA-N

>  <original SMILES>  (147) 
CN(C)CC(=O)Nc1c(NC(=O)C2=CCCO2)ccc(O)c1C#N

>  <generation_date>  (147) 
None

>  <tags>  (147) 
[]

>  <ref_mols>  (147) 
c0553a,c0935a

>  <alias>  (147) 
None

>  <original ID>  (147) 
KYBOJVPYOMLTIL-UHFFFAOYSA-N

>  <exports>  (147) 
['/opt/xchem-fragalysis-2/maxwin/CHIKV_HIPPO/hippo_prod/CHIKV_prod11c_recipes/Recipe_1GJWBFH_poses.sdf', '/opt/xchem-fragalysis-2/maxwin/CHIKV_HIPPO/hippo_prod/CHIKV_prod11c_recipes/Recipe_1GJXK8G_poses.sdf', '/opt/xchem-fragalysis-2/maxwin/CHIKV_HIPPO/hippo_prod/CHIKV_prod11c_recipes/Recipe_1GJXW46_poses.sdf']

>  <method>  (147) 
None

>  <submitter_email>  (147) 
None

>  <submitter_name>  (147) 
None

$$$$
RQYCELDFLIKPOG-ZDUSSCGKSA-N
     RDKit          3D

 25 26  0  0  0  0  0  0  0  0999 V2000
   13.7443   13.3279   11.3986 C   0  0  0  0  0  0  0  0  0  0  0  0
   14.5918   12.4004   11.8114 C   0  0  0  0  0  0  0  0  0  0  0  0
   15.2541   12.4651   13.0261 O   0  0  0  0  0  0  0  0  0  0  0  0
   14.3371   12.5221   14.1264 C   0  0  0  0  0  0  0  0  0  0  0  0
   15.1369   12.7267   15.3928 C   0  0  0  0  0  0  0  0  0  0  0  0
   14.7634   11.2118   10.9426 C   0  0  0  0  0  0  0  0  0  0  0  0
   14.4931   11.2127    9.7520 O   0  0  0  0  0  0  0  0  0  0  0  0
   15.1424   10.1881   11.7612 N   0  0  0  0  0  0  0  0  0  0  0  0
   14.9368    8.8296   11.5668 C   0  0  0  0  0  0  0  0  0  0  0  0
   14.6750    8.3043   10.3047 C   0  0  0  0  0  0  0  0  0  0  0  0
   14.3076    6.9768   10.1897 C   0  0  0  0  0  0  0  0  0  0  0  0
   14.3164    6.1587   11.3067 C   0  0  0  0  0  0  0  0  0  0  0  0
   14.1025    4.8240   11.1347 O   0  0  0  0  0  0  0  0  0  0  0  0
   14.5725    6.6703   12.5813 C   0  0  0  0  0  0  0  0  0  0  0  0
   14.6421    5.7841   13.6973 C   0  0  0  0  0  0  0  0  0  0  0  0
   14.7676    5.1216   14.6423 N   0  0  0  0  0  0  0  0  0  0  0  0
   14.8502    8.0344   12.7343 C   0  0  0  0  0  0  0  0  0  0  0  0
   15.0238    8.6458   14.0407 N   0  0  0  0  0  0  0  0  0  0  0  0
   16.3773    9.0254   14.3696 C   0  0  0  0  0  0  0  0  0  0  0  0
   14.0722    8.4015   15.0556 C   0  0  0  0  0  0  0  0  0  0  0  0
   12.8615    8.4727   14.7754 O   0  0  0  0  0  0  0  0  0  0  0  0
   14.5189    8.0537   16.5154 C   0  0  2  0  0  0  0  0  0  0  0  0
   14.8784    9.1765   17.5086 C   0  0  0  0  0  0  0  0  0  0  0  0
   15.9659    8.2090   18.0088 C   0  0  0  0  0  0  0  0  0  0  0  0
   15.9009    7.5269   16.7018 N   0  0  0  0  0  0  0  0  0  0  0  0
  1  2  2  0
  2  3  1  0
  3  4  1  0
  4  5  1  0
  2  6  1  0
  6  7  2  0
  6  8  1  0
  8  9  1  0
  9 10  2  0
 10 11  1  0
 11 12  2  0
 12 13  1  0
 12 14  1  0
 14 15  1  0
 15 16  3  0
 14 17  2  0
 17 18  1  0
 18 19  1  0
 18 20  1  0
 20 21  2  0
 22 20  1  6
 22 23  1  0
 23 24  1  0
 24 25  1  0
 17  9  1  0
 25 22  1  0
M  END
>  <HIPPO ID>  (148) 
55517

>  <ref_url>  (148) 
None

>  <ref_pdb>  (148) 
c0270a

>  <inchikey>  (148) 
RQYCELDFLIKPOG-ZDUSSCGKSA-N

>  <original SMILES>  (148) 
C=C(OCC)C(=O)Nc1ccc(O)c(C#N)c1N(C)C(=O)[C@@H]1CCN1

>  <generation_date>  (148) 
None

>  <tags>  (148) 
[]

>  <ref_mols>  (148) 
c0553a,c0935a

>  <alias>  (148) 
None

>  <original ID>  (148) 
RQYCELDFLIKPOG-ZDUSSCGKSA-N

>  <exports>  (148) 
['/opt/xchem-fragalysis-2/maxwin/CHIKV_HIPPO/hippo_prod/CHIKV_prod11c_recipes/Recipe_1GJWBFH_poses.sdf', '/opt/xchem-fragalysis-2/maxwin/CHIKV_HIPPO/hippo_prod/CHIKV_prod11c_recipes/Recipe_1GJXK8G_poses.sdf', '/opt/xchem-fragalysis-2/maxwin/CHIKV_HIPPO/hippo_prod/CHIKV_prod11c_recipes/Recipe_1GJXW46_poses.sdf']

>  <method>  (148) 
None

>  <submitter_email>  (148) 
None

>  <submitter_name>  (148) 
None

$$$$
RQYCELDFLIKPOG-CYBMUJFWSA-N
     RDKit          3D

 25 26  0  0  0  0  0  0  0  0999 V2000
   13.9382   13.3604   13.6644 C   0  0  0  0  0  0  0  0  0  0  0  0
   14.7878   13.4793   12.6349 C   0  0  0  0  0  0  0  0  0  0  0  0
   15.9735   14.1727   12.6167 O   0  0  0  0  0  0  0  0  0  0  0  0
   16.3863   14.8381   13.8113 C   0  0  0  0  0  0  0  0  0  0  0  0
   15.7110   16.1849   14.0066 C   0  0  0  0  0  0  0  0  0  0  0  0
   14.5130   12.5262   11.5107 C   0  0  0  0  0  0  0  0  0  0  0  0
   13.4422   12.4622   10.9276 O   0  0  0  0  0  0  0  0  0  0  0  0
   15.5723   11.6406   11.3862 N   0  0  0  0  0  0  0  0  0  0  0  0
   15.2814   10.2866   11.1347 C   0  0  0  0  0  0  0  0  0  0  0  0
   14.8643   10.0116    9.8219 C   0  0  0  0  0  0  0  0  0  0  0  0
   14.5129    8.7403    9.4198 C   0  0  0  0  0  0  0  0  0  0  0  0
   14.6783    7.7056   10.3112 C   0  0  0  0  0  0  0  0  0  0  0  0
   14.4307    6.4300    9.8922 O   0  0  0  0  0  0  0  0  0  0  0  0
   15.1336    7.9375   11.6198 C   0  0  0  0  0  0  0  0  0  0  0  0
   15.5410    6.7853   12.3679 C   0  0  0  0  0  0  0  0  0  0  0  0
   16.0010    5.8829   12.9361 N   0  0  0  0  0  0  0  0  0  0  0  0
   15.3671    9.2540   12.1050 C   0  0  0  0  0  0  0  0  0  0  0  0
   15.6743    9.4435   13.5238 N   0  0  0  0  0  0  0  0  0  0  0  0
   16.2213   10.6655   14.0460 C   0  0  0  0  0  0  0  0  0  0  0  0
   15.0005    8.6656   14.4992 C   0  0  0  0  0  0  0  0  0  0  0  0
   13.8298    8.2969   14.3405 O   0  0  0  0  0  0  0  0  0  0  0  0
   15.8532    8.3366   15.7893 C   0  0  1  0  0  0  0  0  0  0  0  0
   15.4081    8.9744   17.1207 C   0  0  0  0  0  0  0  0  0  0  0  0
   15.6694    7.5913   17.7266 C   0  0  0  0  0  0  0  0  0  0  0  0
   15.5240    7.0069   16.3801 N   0  0  0  0  0  0  0  0  0  0  0  0
  1  2  2  0
  2  3  1  0
  3  4  1  0
  4  5  1  0
  2  6  1  0
  6  7  2  0
  6  8  1  0
  8  9  1  0
  9 10  2  0
 10 11  1  0
 11 12  2  0
 12 13  1  0
 12 14  1  0
 14 15  1  0
 15 16  3  0
 14 17  2  0
 17 18  1  0
 18 19  1  0
 18 20  1  0
 20 21  2  0
 22 20  1  6
 22 23  1  0
 23 24  1  0
 24 25  1  0
 17  9  1  0
 25 22  1  0
M  END
>  <HIPPO ID>  (149) 
55518

>  <ref_url>  (149) 
None

>  <ref_pdb>  (149) 
c0270a

>  <inchikey>  (149) 
RQYCELDFLIKPOG-CYBMUJFWSA-N

>  <original SMILES>  (149) 
C=C(OCC)C(=O)Nc1ccc(O)c(C#N)c1N(C)C(=O)[C@H]1CCN1

>  <generation_date>  (149) 
None

>  <tags>  (149) 
[]

>  <ref_mols>  (149) 
c0553a,c0935a

>  <alias>  (149) 
None

>  <original ID>  (149) 
RQYCELDFLIKPOG-CYBMUJFWSA-N

>  <exports>  (149) 
['/opt/xchem-fragalysis-2/maxwin/CHIKV_HIPPO/hippo_prod/CHIKV_prod11c_recipes/Recipe_1GJWBFH_poses.sdf', '/opt/xchem-fragalysis-2/maxwin/CHIKV_HIPPO/hippo_prod/CHIKV_prod11c_recipes/Recipe_1GJXK8G_poses.sdf', '/opt/xchem-fragalysis-2/maxwin/CHIKV_HIPPO/hippo_prod/CHIKV_prod11c_recipes/Recipe_1GJXW46_poses.sdf']

>  <method>  (149) 
None

>  <submitter_email>  (149) 
None

>  <submitter_name>  (149) 
None

$$$$
FTEDAAMHBNYUBM-JTQLQIEISA-N
     RDKit          3D

 25 26  0  0  0  0  0  0  0  0999 V2000
   16.1899   10.6303   14.5090 C   0  0  0  0  0  0  0  0  0  0  0  0
   15.2929    9.5365   14.1719 N   0  0  0  0  0  0  0  0  0  0  0  0
   14.4221    9.0310   15.1581 C   0  0  0  0  0  0  0  0  0  0  0  0
   13.3369    8.5354   14.8301 O   0  0  0  0  0  0  0  0  0  0  0  0
   14.9268    9.2192   16.6605 C   0  0  2  0  0  0  0  0  0  0  0  0
   16.1232    8.3489   17.1115 C   0  0  0  0  0  0  0  0  0  0  0  0
   15.0560    7.3614   17.5976 C   0  0  0  0  0  0  0  0  0  0  0  0
   14.0998    8.4932   17.6737 N   0  0  0  0  0  0  0  0  0  0  0  0
   15.2072    9.0550   12.8054 C   0  0  0  0  0  0  0  0  0  0  0  0
   15.0773    9.9565   11.7276 C   0  0  0  0  0  0  0  0  0  0  0  0
   14.7997   11.2758   12.0556 N   0  0  0  0  0  0  0  0  0  0  0  0
   14.3738   12.2864   11.2408 C   0  0  0  0  0  0  0  0  0  0  0  0
   14.2135   12.2444   10.0321 O   0  0  0  0  0  0  0  0  0  0  0  0
   14.0762   13.4872   12.0960 C   0  0  0  0  0  0  0  0  0  0  0  0
   15.2752   13.9326   12.7041 O   0  0  0  0  0  0  0  0  0  0  0  0
   15.0581   15.0611   13.5263 C   0  0  0  0  0  0  0  0  0  0  0  0
   16.2620   15.4206   14.0179 F   0  0  0  0  0  0  0  0  0  0  0  0
   14.6155   16.0893   12.7706 F   0  0  0  0  0  0  0  0  0  0  0  0
   15.0566    9.5239   10.4022 C   0  0  0  0  0  0  0  0  0  0  0  0
   15.0077    8.1744   10.1284 C   0  0  0  0  0  0  0  0  0  0  0  0
   15.0873    7.2637   11.1684 C   0  0  0  0  0  0  0  0  0  0  0  0
   15.0653    5.9320   10.8679 O   0  0  0  0  0  0  0  0  0  0  0  0
   15.2270    7.6838   12.4978 C   0  0  0  0  0  0  0  0  0  0  0  0
   15.5081    6.7038   13.4969 C   0  0  0  0  0  0  0  0  0  0  0  0
   15.8355    5.9435   14.3106 N   0  0  0  0  0  0  0  0  0  0  0  0
  1  2  1  0
  2  3  1  0
  3  4  2  0
  5  3  1  6
  5  6  1  0
  6  7  1  0
  7  8  1  0
  2  9  1  0
  9 10  2  0
 10 11  1  0
 11 12  1  0
 12 13  2  0
 12 14  1  0
 14 15  1  0
 15 16  1  0
 16 17  1  0
 16 18  1  0
 10 19  1  0
 19 20  2  0
 20 21  1  0
 21 22  1  0
 21 23  2  0
 23 24  1  0
 24 25  3  0
  8  5  1  0
 23  9  1  0
M  END
>  <HIPPO ID>  (150) 
55611

>  <ref_url>  (150) 
None

>  <ref_pdb>  (150) 
c0270a

>  <inchikey>  (150) 
FTEDAAMHBNYUBM-JTQLQIEISA-N

>  <original SMILES>  (150) 
CN(C(=O)[C@@H]1CCN1)c1c(NC(=O)COC(F)F)ccc(O)c1C#N

>  <generation_date>  (150) 
None

>  <tags>  (150) 
[]

>  <ref_mols>  (150) 
c0553a,c0935a

>  <alias>  (150) 
None

>  <original ID>  (150) 
FTEDAAMHBNYUBM-JTQLQIEISA-N

>  <exports>  (150) 
['/opt/xchem-fragalysis-2/maxwin/CHIKV_HIPPO/hippo_prod/CHIKV_prod11c_recipes/Recipe_1GJWBFH_poses.sdf', '/opt/xchem-fragalysis-2/maxwin/CHIKV_HIPPO/hippo_prod/CHIKV_prod11c_recipes/Recipe_1GJXK8G_poses.sdf', '/opt/xchem-fragalysis-2/maxwin/CHIKV_HIPPO/hippo_prod/CHIKV_prod11c_recipes/Recipe_1GJXW46_poses.sdf']

>  <method>  (150) 
None

>  <submitter_email>  (150) 
None

>  <submitter_name>  (150) 
None

$$$$
YPQMDBBBZHRBJN-ZDUSSCGKSA-N
     RDKit          3D

 25 26  0  0  0  0  0  0  0  0999 V2000
   14.4395    7.4943   17.9477 C   0  0  0  0  0  0  0  0  0  0  0  0
   15.2754    7.8622   16.9666 C   0  0  0  0  0  0  0  0  0  0  0  0
   16.5950    7.4904   16.8212 O   0  0  0  0  0  0  0  0  0  0  0  0
   17.0680    6.4247   17.6399 C   0  0  0  0  0  0  0  0  0  0  0  0
   18.4328    6.0213   17.1189 C   0  0  0  0  0  0  0  0  0  0  0  0
   14.7317    8.7786   15.9089 C   0  0  0  0  0  0  0  0  0  0  0  0
   13.5354    8.9536   15.7188 O   0  0  0  0  0  0  0  0  0  0  0  0
   15.7694    9.3831   15.2253 N   0  0  0  0  0  0  0  0  0  0  0  0
   15.5055   10.4485   14.3627 C   0  0  0  0  0  0  0  0  0  0  0  0
   15.8216   11.7159   14.8778 C   0  0  0  0  0  0  0  0  0  0  0  0
   15.6589   12.8502   14.1064 C   0  0  0  0  0  0  0  0  0  0  0  0
   15.1775   12.7141   12.8210 C   0  0  0  0  0  0  0  0  0  0  0  0
   15.0796   13.8775   12.1145 O   0  0  0  0  0  0  0  0  0  0  0  0
   14.8672   11.4507   12.2925 C   0  0  0  0  0  0  0  0  0  0  0  0
   14.4339   11.4347   10.9433 C   0  0  0  0  0  0  0  0  0  0  0  0
   14.1808   11.5539    9.8207 N   0  0  0  0  0  0  0  0  0  0  0  0
   15.0416   10.2627   13.0417 C   0  0  0  0  0  0  0  0  0  0  0  0
   14.7697    8.9867   12.4571 N   0  0  0  0  0  0  0  0  0  0  0  0
   14.5574    7.7066   13.0961 C   0  0  0  0  0  0  0  0  0  0  0  0
   14.6507    7.0934   11.7022 C   0  0  0  0  0  0  0  0  0  0  0  0
   15.5369    8.3183   11.4043 C   0  0  1  0  0  0  0  0  0  0  0  0
   15.5271    8.8428    9.9524 C   0  0  0  0  0  0  0  0  0  0  0  0
   14.6860    8.5131    9.1136 O   0  0  0  0  0  0  0  0  0  0  0  0
   16.5441    9.6864    9.5807 N   0  0  0  0  0  0  0  0  0  0  0  0
   17.4816   10.3987   10.4097 C   0  0  0  0  0  0  0  0  0  0  0  0
  1  2  2  0
  2  3  1  0
  3  4  1  0
  4  5  1  0
  2  6  1  0
  6  7  2  0
  6  8  1  0
  8  9  1  0
  9 10  2  0
 10 11  1  0
 11 12  2  0
 12 13  1  0
 12 14  1  0
 14 15  1  0
 15 16  3  0
 14 17  2  0
 17 18  1  0
 18 19  1  0
 19 20  1  0
 20 21  1  0
 21 22  1  6
 22 23  2  0
 22 24  1  0
 24 25  1  0
 17  9  1  0
 21 18  1  0
M  END
>  <HIPPO ID>  (151) 
55617

>  <ref_url>  (151) 
None

>  <ref_pdb>  (151) 
c0270a

>  <inchikey>  (151) 
YPQMDBBBZHRBJN-ZDUSSCGKSA-N

>  <original SMILES>  (151) 
C=C(OCC)C(=O)Nc1ccc(O)c(C#N)c1N1CC[C@H]1C(=O)NC

>  <generation_date>  (151) 
None

>  <tags>  (151) 
[]

>  <ref_mols>  (151) 
c0553a,c0935a

>  <alias>  (151) 
None

>  <original ID>  (151) 
YPQMDBBBZHRBJN-ZDUSSCGKSA-N

>  <exports>  (151) 
['/opt/xchem-fragalysis-2/maxwin/CHIKV_HIPPO/hippo_prod/CHIKV_prod11c_recipes/Recipe_1GJWBFH_poses.sdf', '/opt/xchem-fragalysis-2/maxwin/CHIKV_HIPPO/hippo_prod/CHIKV_prod11c_recipes/Recipe_1GJXK8G_poses.sdf', '/opt/xchem-fragalysis-2/maxwin/CHIKV_HIPPO/hippo_prod/CHIKV_prod11c_recipes/Recipe_1GJXW46_poses.sdf']

>  <method>  (151) 
None

>  <submitter_email>  (151) 
None

>  <submitter_name>  (151) 
None

$$$$
YPQMDBBBZHRBJN-CYBMUJFWSA-N
     RDKit          3D

 25 26  0  0  0  0  0  0  0  0999 V2000
   15.4270    7.9925   17.3489 C   0  0  0  0  0  0  0  0  0  0  0  0
   15.5747    8.4305   16.0899 C   0  0  0  0  0  0  0  0  0  0  0  0
   15.8175    7.6581   14.9684 O   0  0  0  0  0  0  0  0  0  0  0  0
   15.7772    6.2412   15.1072 C   0  0  0  0  0  0  0  0  0  0  0  0
   15.8340    5.6429   13.7130 C   0  0  0  0  0  0  0  0  0  0  0  0
   15.5059    9.9240   15.8634 C   0  0  0  0  0  0  0  0  0  0  0  0
   15.1202   10.7085   16.7165 O   0  0  0  0  0  0  0  0  0  0  0  0
   15.9649   10.2119   14.6064 N   0  0  0  0  0  0  0  0  0  0  0  0
   16.2100   11.4461   13.9951 C   0  0  0  0  0  0  0  0  0  0  0  0
   15.9422   12.6720   14.5978 C   0  0  0  0  0  0  0  0  0  0  0  0
   16.4014   13.8406   13.9999 C   0  0  0  0  0  0  0  0  0  0  0  0
   17.2174   13.7532   12.8756 C   0  0  0  0  0  0  0  0  0  0  0  0
   17.7909   14.8817   12.3732 O   0  0  0  0  0  0  0  0  0  0  0  0
   17.4690   12.5270   12.2551 C   0  0  0  0  0  0  0  0  0  0  0  0
   18.5123   12.4004   11.2902 C   0  0  0  0  0  0  0  0  0  0  0  0
   19.3912   12.2064   10.5596 N   0  0  0  0  0  0  0  0  0  0  0  0
   16.8109   11.3855   12.7107 C   0  0  0  0  0  0  0  0  0  0  0  0
   16.6229   10.1950   11.9065 N   0  0  0  0  0  0  0  0  0  0  0  0
   16.8476   10.1077   10.4775 C   0  0  0  0  0  0  0  0  0  0  0  0
   15.6573    9.1662   10.3693 C   0  0  0  0  0  0  0  0  0  0  0  0
   15.2565    9.6721   11.7453 C   0  0  2  0  0  0  0  0  0  0  0  0
   14.2138   10.7929   11.9771 C   0  0  0  0  0  0  0  0  0  0  0  0
   13.5943   10.8895   13.0387 O   0  0  0  0  0  0  0  0  0  0  0  0
   14.1116   11.7462   10.9835 N   0  0  0  0  0  0  0  0  0  0  0  0
   13.6034   13.0394   11.3374 C   0  0  0  0  0  0  0  0  0  0  0  0
  1  2  2  0
  2  3  1  0
  3  4  1  0
  4  5  1  0
  2  6  1  0
  6  7  2  0
  6  8  1  0
  8  9  1  0
  9 10  2  0
 10 11  1  0
 11 12  2  0
 12 13  1  0
 12 14  1  0
 14 15  1  0
 15 16  3  0
 14 17  2  0
 17 18  1  0
 18 19  1  0
 19 20  1  0
 20 21  1  0
 21 22  1  6
 22 23  2  0
 22 24  1  0
 24 25  1  0
 17  9  1  0
 21 18  1  0
M  END
>  <HIPPO ID>  (152) 
55618

>  <ref_url>  (152) 
None

>  <ref_pdb>  (152) 
c0270a

>  <inchikey>  (152) 
YPQMDBBBZHRBJN-CYBMUJFWSA-N

>  <original SMILES>  (152) 
C=C(OCC)C(=O)Nc1ccc(O)c(C#N)c1N1CC[C@@H]1C(=O)NC

>  <generation_date>  (152) 
None

>  <tags>  (152) 
[]

>  <ref_mols>  (152) 
c0553a,c0935a

>  <alias>  (152) 
None

>  <original ID>  (152) 
YPQMDBBBZHRBJN-CYBMUJFWSA-N

>  <exports>  (152) 
['/opt/xchem-fragalysis-2/maxwin/CHIKV_HIPPO/hippo_prod/CHIKV_prod11c_recipes/Recipe_1GJWBFH_poses.sdf', '/opt/xchem-fragalysis-2/maxwin/CHIKV_HIPPO/hippo_prod/CHIKV_prod11c_recipes/Recipe_1GJXK8G_poses.sdf', '/opt/xchem-fragalysis-2/maxwin/CHIKV_HIPPO/hippo_prod/CHIKV_prod11c_recipes/Recipe_1GJXW46_poses.sdf']

>  <method>  (152) 
None

>  <submitter_email>  (152) 
None

>  <submitter_name>  (152) 
None

$$$$
WJCPBYMUAUYAHW-SNVBAGLBSA-N
     RDKit          3D

 25 26  0  0  0  0  0  0  0  0999 V2000
   16.4458   10.7513   16.3220 C   0  0  0  0  0  0  0  0  0  0  0  0
   15.9123    9.6507   15.7792 C   0  0  0  0  0  0  0  0  0  0  0  0
   16.5339    8.4202   15.7399 O   0  0  0  0  0  0  0  0  0  0  0  0
   17.0821    7.9351   16.9643 C   0  0  0  0  0  0  0  0  0  0  0  0
   18.5387    7.5755   16.7499 C   0  0  0  0  0  0  0  0  0  0  0  0
   14.5228    9.7133   15.2271 C   0  0  0  0  0  0  0  0  0  0  0  0
   13.6355    9.0045   15.7021 O   0  0  0  0  0  0  0  0  0  0  0  0
   14.2258   10.4936   14.1417 N   0  0  0  0  0  0  0  0  0  0  0  0
   15.1399   10.7910   13.1234 C   0  0  0  0  0  0  0  0  0  0  0  0
   15.7468   12.0418   13.2116 C   0  0  0  0  0  0  0  0  0  0  0  0
   16.7283   12.3779   12.3037 C   0  0  0  0  0  0  0  0  0  0  0  0
   17.0005   11.5123   11.2570 C   0  0  0  0  0  0  0  0  0  0  0  0
   18.1401   11.7101   10.5449 O   0  0  0  0  0  0  0  0  0  0  0  0
   16.1797   10.4140   10.9855 C   0  0  0  0  0  0  0  0  0  0  0  0
   16.2418    9.7522    9.7256 C   0  0  0  0  0  0  0  0  0  0  0  0
   16.1150    9.1410    8.7520 N   0  0  0  0  0  0  0  0  0  0  0  0
   15.3214    9.9548   11.9946 C   0  0  0  0  0  0  0  0  0  0  0  0
   14.8999    8.5737   12.0087 N   0  0  0  0  0  0  0  0  0  0  0  0
   15.4280    7.7420   13.0974 C   0  0  0  0  0  0  0  0  0  0  0  0
   15.8953    6.3310   12.7363 C   0  0  0  0  0  0  0  0  0  0  0  0
   15.7131    6.0333   11.3315 N   0  0  0  0  0  0  0  0  0  0  0  0
   14.3205    6.4208   10.9905 C   0  0  2  0  0  0  0  0  0  0  0  0
   13.8789    5.7074    9.7378 C   0  0  0  0  0  0  0  0  0  0  0  0
   14.2695    7.9492   10.9155 C   0  0  0  0  0  0  0  0  0  0  0  0
   13.6889    8.5436   10.0169 O   0  0  0  0  0  0  0  0  0  0  0  0
  1  2  2  0
  2  3  1  0
  3  4  1  0
  4  5  1  0
  2  6  1  0
  6  7  2  0
  6  8  1  0
  8  9  1  0
  9 10  2  0
 10 11  1  0
 11 12  2  0
 12 13  1  0
 12 14  1  0
 14 15  1  0
 15 16  3  0
 14 17  2  0
 17 18  1  0
 18 19  1  0
 19 20  1  0
 20 21  1  0
 21 22  1  0
 22 23  1  6
 22 24  1  0
 24 25  2  0
 17  9  1  0
 24 18  1  0
M  END
>  <HIPPO ID>  (153) 
55861

>  <ref_url>  (153) 
None

>  <ref_pdb>  (153) 
c0270a

>  <inchikey>  (153) 
WJCPBYMUAUYAHW-SNVBAGLBSA-N

>  <original SMILES>  (153) 
C=C(OCC)C(=O)Nc1ccc(O)c(C#N)c1N1CCN[C@H](C)C1=O

>  <generation_date>  (153) 
None

>  <tags>  (153) 
[]

>  <ref_mols>  (153) 
c0553a,c0935a

>  <alias>  (153) 
None

>  <original ID>  (153) 
WJCPBYMUAUYAHW-SNVBAGLBSA-N

>  <exports>  (153) 
['/opt/xchem-fragalysis-2/maxwin/CHIKV_HIPPO/hippo_prod/CHIKV_prod11c_recipes/Recipe_1GJWBFH_poses.sdf', '/opt/xchem-fragalysis-2/maxwin/CHIKV_HIPPO/hippo_prod/CHIKV_prod11c_recipes/Recipe_1GJXK8G_poses.sdf', '/opt/xchem-fragalysis-2/maxwin/CHIKV_HIPPO/hippo_prod/CHIKV_prod11c_recipes/Recipe_1GJXW46_poses.sdf']

>  <method>  (153) 
None

>  <submitter_email>  (153) 
None

>  <submitter_name>  (153) 
None

$$$$
WJCPBYMUAUYAHW-SNVBAGLBSA-N
     RDKit          3D

 25 26  0  0  0  0  0  0  0  0999 V2000
   16.5862   10.2538   16.3863 C   0  0  0  0  0  0  0  0  0  0  0  0
   16.0046    9.2761   15.6842 C   0  0  0  0  0  0  0  0  0  0  0  0
   16.7163    8.1596   15.2654 O   0  0  0  0  0  0  0  0  0  0  0  0
   15.9487    6.9542   15.3968 C   0  0  0  0  0  0  0  0  0  0  0  0
   16.8581    5.7579   15.2029 C   0  0  0  0  0  0  0  0  0  0  0  0
   14.5370    9.3660   15.4415 C   0  0  0  0  0  0  0  0  0  0  0  0
   13.7399    8.9849   16.2925 O   0  0  0  0  0  0  0  0  0  0  0  0
   14.1095    9.6562   14.1808 N   0  0  0  0  0  0  0  0  0  0  0  0
   14.9135   10.1936   13.1796 C   0  0  0  0  0  0  0  0  0  0  0  0
   15.3880   11.5024   13.3630 C   0  0  0  0  0  0  0  0  0  0  0  0
   16.3367   12.0339   12.4994 C   0  0  0  0  0  0  0  0  0  0  0  0
   16.7346   11.3013   11.4002 C   0  0  0  0  0  0  0  0  0  0  0  0
   17.7790   11.7946   10.6821 O   0  0  0  0  0  0  0  0  0  0  0  0
   16.0843   10.1105   11.1008 C   0  0  0  0  0  0  0  0  0  0  0  0
   16.0428    9.6555    9.7546 C   0  0  0  0  0  0  0  0  0  0  0  0
   15.8507    9.2547    8.6892 N   0  0  0  0  0  0  0  0  0  0  0  0
   15.2631    9.4600   12.0469 C   0  0  0  0  0  0  0  0  0  0  0  0
   14.9564    8.0783   11.8156 N   0  0  0  0  0  0  0  0  0  0  0  0
   16.0786    7.1726   11.7014 C   0  0  0  0  0  0  0  0  0  0  0  0
   15.7262    5.6712   11.6745 C   0  0  0  0  0  0  0  0  0  0  0  0
   14.5954    5.3401   10.8165 N   0  0  0  0  0  0  0  0  0  0  0  0
   13.5425    6.3790   10.8884 C   0  0  2  0  0  0  0  0  0  0  0  0
   13.5204    7.1236    9.5634 C   0  0  0  0  0  0  0  0  0  0  0  0
   13.8056    7.3501   12.0535 C   0  0  0  0  0  0  0  0  0  0  0  0
   13.1556    7.3583   13.0889 O   0  0  0  0  0  0  0  0  0  0  0  0
  1  2  2  0
  2  3  1  0
  3  4  1  0
  4  5  1  0
  2  6  1  0
  6  7  2  0
  6  8  1  0
  8  9  1  0
  9 10  2  0
 10 11  1  0
 11 12  2  0
 12 13  1  0
 12 14  1  0
 14 15  1  0
 15 16  3  0
 14 17  2  0
 17 18  1  0
 18 19  1  0
 19 20  1  0
 20 21  1  0
 21 22  1  0
 22 23  1  6
 22 24  1  0
 24 25  2  0
 17  9  1  0
 24 18  1  0
M  END
>  <HIPPO ID>  (154) 
55862

>  <ref_url>  (154) 
None

>  <ref_pdb>  (154) 
c0270a

>  <inchikey>  (154) 
WJCPBYMUAUYAHW-SNVBAGLBSA-N

>  <original SMILES>  (154) 
C=C(OCC)C(=O)Nc1ccc(O)c(C#N)c1N1CCN[C@H](C)C1=O

>  <generation_date>  (154) 
None

>  <tags>  (154) 
[]

>  <ref_mols>  (154) 
c0553a,c0935a

>  <alias>  (154) 
None

>  <original ID>  (154) 
WJCPBYMUAUYAHW-SNVBAGLBSA-N

>  <exports>  (154) 
['/opt/xchem-fragalysis-2/maxwin/CHIKV_HIPPO/hippo_prod/CHIKV_prod11c_recipes/Recipe_1GJWBFH_poses.sdf', '/opt/xchem-fragalysis-2/maxwin/CHIKV_HIPPO/hippo_prod/CHIKV_prod11c_recipes/Recipe_1GJXK8G_poses.sdf', '/opt/xchem-fragalysis-2/maxwin/CHIKV_HIPPO/hippo_prod/CHIKV_prod11c_recipes/Recipe_1GJXW46_poses.sdf']

>  <method>  (154) 
None

>  <submitter_email>  (154) 
None

>  <submitter_name>  (154) 
None

$$$$
KVCGPDHHRCKIJN-JTQLQIEISA-N
     RDKit          3D

 25 26  0  0  0  0  0  0  0  0999 V2000
   16.4488   10.4420   16.4710 C   0  0  0  0  0  0  0  0  0  0  0  0
   16.0265    9.4148   15.7235 C   0  0  0  0  0  0  0  0  0  0  0  0
   16.7734    8.3196   15.3545 O   0  0  0  0  0  0  0  0  0  0  0  0
   17.6399    7.7808   16.3493 C   0  0  0  0  0  0  0  0  0  0  0  0
   18.1051    6.4217   15.8635 C   0  0  0  0  0  0  0  0  0  0  0  0
   14.6017    9.3872   15.2857 C   0  0  0  0  0  0  0  0  0  0  0  0
   13.7261    8.9266   16.0136 O   0  0  0  0  0  0  0  0  0  0  0  0
   14.3070    9.6527   13.9835 N   0  0  0  0  0  0  0  0  0  0  0  0
   15.1698   10.1892   13.0359 C   0  0  0  0  0  0  0  0  0  0  0  0
   15.6101   11.5033   13.2545 C   0  0  0  0  0  0  0  0  0  0  0  0
   16.5431   12.0667   12.4069 C   0  0  0  0  0  0  0  0  0  0  0  0
   16.9636   11.3457   11.3099 C   0  0  0  0  0  0  0  0  0  0  0  0
   18.0331   11.8550   10.6414 O   0  0  0  0  0  0  0  0  0  0  0  0
   16.3402   10.1446   10.9742 C   0  0  0  0  0  0  0  0  0  0  0  0
   16.4508    9.6231    9.6668 C   0  0  0  0  0  0  0  0  0  0  0  0
   16.3479    9.1979    8.5988 N   0  0  0  0  0  0  0  0  0  0  0  0
   15.5053    9.4654   11.8765 C   0  0  0  0  0  0  0  0  0  0  0  0
   15.2405    8.1028   11.6435 N   0  0  0  0  0  0  0  0  0  0  0  0
   15.5469    7.1624   12.7343 C   0  0  0  0  0  0  0  0  0  0  0  0
   15.8286    5.7646   12.1776 C   0  0  0  0  0  0  0  0  0  0  0  0
   14.9267    5.3311   11.1431 N   0  0  0  0  0  0  0  0  0  0  0  0
   14.1886    6.1868   10.3734 C   0  0  0  0  0  0  0  0  0  0  0  0
   13.5187    5.7161    9.4579 O   0  0  0  0  0  0  0  0  0  0  0  0
   14.0765    7.6439   10.8339 C   0  0  2  0  0  0  0  0  0  0  0  0
   13.7085    8.4709    9.6233 C   0  0  0  0  0  0  0  0  0  0  0  0
  1  2  2  0
  2  3  1  0
  3  4  1  0
  4  5  1  0
  2  6  1  0
  6  7  2  0
  6  8  1  0
  8  9  1  0
  9 10  2  0
 10 11  1  0
 11 12  2  0
 12 13  1  0
 12 14  1  0
 14 15  1  0
 15 16  3  0
 14 17  2  0
 17 18  1  0
 18 19  1  0
 19 20  1  0
 20 21  1  0
 21 22  1  0
 22 23  2  0
 22 24  1  0
 24 25  1  6
 17  9  1  0
 24 18  1  0
M  END
>  <HIPPO ID>  (155) 
55884

>  <ref_url>  (155) 
None

>  <ref_pdb>  (155) 
c0270a

>  <inchikey>  (155) 
KVCGPDHHRCKIJN-JTQLQIEISA-N

>  <original SMILES>  (155) 
C=C(OCC)C(=O)Nc1ccc(O)c(C#N)c1N1CCNC(=O)[C@@H]1C

>  <generation_date>  (155) 
None

>  <tags>  (155) 
[]

>  <ref_mols>  (155) 
c0553a,c0935a

>  <alias>  (155) 
None

>  <original ID>  (155) 
KVCGPDHHRCKIJN-JTQLQIEISA-N

>  <exports>  (155) 
['/opt/xchem-fragalysis-2/maxwin/CHIKV_HIPPO/hippo_prod/CHIKV_prod11c_recipes/Recipe_1GJWBFH_poses.sdf', '/opt/xchem-fragalysis-2/maxwin/CHIKV_HIPPO/hippo_prod/CHIKV_prod11c_recipes/Recipe_1GJXK8G_poses.sdf', '/opt/xchem-fragalysis-2/maxwin/CHIKV_HIPPO/hippo_prod/CHIKV_prod11c_recipes/Recipe_1GJXW46_poses.sdf']

>  <method>  (155) 
None

>  <submitter_email>  (155) 
None

>  <submitter_name>  (155) 
None

$$$$
KVCGPDHHRCKIJN-SNVBAGLBSA-N
     RDKit          3D

 25 26  0  0  0  0  0  0  0  0999 V2000
   16.4165   10.5114   16.1592 C   0  0  0  0  0  0  0  0  0  0  0  0
   15.7617    9.4127   15.7666 C   0  0  0  0  0  0  0  0  0  0  0  0
   16.3410    8.1720   15.9823 O   0  0  0  0  0  0  0  0  0  0  0  0
   15.4669    7.2455   16.6299 C   0  0  0  0  0  0  0  0  0  0  0  0
   16.2983    6.0734   17.1026 C   0  0  0  0  0  0  0  0  0  0  0  0
   14.3910    9.5367   15.1606 C   0  0  0  0  0  0  0  0  0  0  0  0
   13.4388    8.8586   15.5424 O   0  0  0  0  0  0  0  0  0  0  0  0
   14.1879   10.4659   14.1770 N   0  0  0  0  0  0  0  0  0  0  0  0
   15.0906   10.5821   13.1089 C   0  0  0  0  0  0  0  0  0  0  0  0
   15.7289   11.8215   13.0194 C   0  0  0  0  0  0  0  0  0  0  0  0
   16.6888   12.0076   12.0517 C   0  0  0  0  0  0  0  0  0  0  0  0
   16.8726   11.0271   11.0953 C   0  0  0  0  0  0  0  0  0  0  0  0
   17.9391   11.2242   10.2766 O   0  0  0  0  0  0  0  0  0  0  0  0
   16.0334    9.9079   11.0392 C   0  0  0  0  0  0  0  0  0  0  0  0
   15.8159    9.2970    9.7841 C   0  0  0  0  0  0  0  0  0  0  0  0
   15.4574    8.8835    8.7693 N   0  0  0  0  0  0  0  0  0  0  0  0
   15.2351    9.5548   12.1359 C   0  0  0  0  0  0  0  0  0  0  0  0
   14.6903    8.2710   12.3748 N   0  0  0  0  0  0  0  0  0  0  0  0
   15.6074    7.3488   13.0720 C   0  0  0  0  0  0  0  0  0  0  0  0
   16.3173    6.4427   12.0792 C   0  0  0  0  0  0  0  0  0  0  0  0
   15.4723    5.7501   11.1517 N   0  0  0  0  0  0  0  0  0  0  0  0
   14.4549    6.4515   10.5582 C   0  0  0  0  0  0  0  0  0  0  0  0
   13.9150    6.0777    9.5259 O   0  0  0  0  0  0  0  0  0  0  0  0
   13.8315    7.5292   11.3956 C   0  0  1  0  0  0  0  0  0  0  0  0
   12.7866    6.6882   12.1815 C   0  0  0  0  0  0  0  0  0  0  0  0
  1  2  2  0
  2  3  1  0
  3  4  1  0
  4  5  1  0
  2  6  1  0
  6  7  2  0
  6  8  1  0
  8  9  1  0
  9 10  2  0
 10 11  1  0
 11 12  2  0
 12 13  1  0
 12 14  1  0
 14 15  1  0
 15 16  3  0
 14 17  2  0
 17 18  1  0
 18 19  1  0
 19 20  1  0
 20 21  1  0
 21 22  1  0
 22 23  2  0
 22 24  1  0
 24 25  1  1
 17  9  1  0
 24 18  1  0
M  END
>  <HIPPO ID>  (156) 
55885

>  <ref_url>  (156) 
None

>  <ref_pdb>  (156) 
c0270a

>  <inchikey>  (156) 
KVCGPDHHRCKIJN-SNVBAGLBSA-N

>  <original SMILES>  (156) 
C=C(OCC)C(=O)Nc1ccc(O)c(C#N)c1N1CCNC(=O)[C@H]1C

>  <generation_date>  (156) 
None

>  <tags>  (156) 
[]

>  <ref_mols>  (156) 
c0553a,c0935a

>  <alias>  (156) 
None

>  <original ID>  (156) 
KVCGPDHHRCKIJN-SNVBAGLBSA-N

>  <exports>  (156) 
['/opt/xchem-fragalysis-2/maxwin/CHIKV_HIPPO/hippo_prod/CHIKV_prod11c_recipes/Recipe_1GJWBFH_poses.sdf', '/opt/xchem-fragalysis-2/maxwin/CHIKV_HIPPO/hippo_prod/CHIKV_prod11c_recipes/Recipe_1GJXK8G_poses.sdf', '/opt/xchem-fragalysis-2/maxwin/CHIKV_HIPPO/hippo_prod/CHIKV_prod11c_recipes/Recipe_1GJXW46_poses.sdf']

>  <method>  (156) 
None

>  <submitter_email>  (156) 
None

>  <submitter_name>  (156) 
None

$$$$
SUOGJPMIZNUKGU-GFCCVEGCSA-N
     RDKit          3D

 25 26  0  0  0  0  0  0  0  0999 V2000
   16.0371   12.2721   16.9339 C   0  0  0  0  0  0  0  0  0  0  0  0
   16.6723   10.8948   16.9636 C   0  0  0  0  0  0  0  0  0  0  0  0
   16.3718   10.2281   15.7364 O   0  0  0  0  0  0  0  0  0  0  0  0
   15.3471    9.2474   15.8752 C   0  0  2  0  0  0  0  0  0  0  0  0
   15.8848    7.8574   16.2561 C   0  0  0  0  0  0  0  0  0  0  0  0
   17.3769    7.6374   16.0920 C   0  0  0  0  0  0  0  0  0  0  0  0
   14.3506    9.2021   14.6910 C   0  0  0  0  0  0  0  0  0  0  0  0
   13.5244    8.3025   14.5498 O   0  0  0  0  0  0  0  0  0  0  0  0
   14.2401   10.3945   14.0041 N   0  0  0  0  0  0  0  0  0  0  0  0
   15.0646   10.6401   12.8795 C   0  0  0  0  0  0  0  0  0  0  0  0
   15.6779   11.9079   12.9185 C   0  0  0  0  0  0  0  0  0  0  0  0
   16.7342   12.2018   12.0786 C   0  0  0  0  0  0  0  0  0  0  0  0
   17.0853   11.2941   11.1058 C   0  0  0  0  0  0  0  0  0  0  0  0
   18.2490   11.5434   10.4489 O   0  0  0  0  0  0  0  0  0  0  0  0
   16.2719   10.1944   10.8626 C   0  0  0  0  0  0  0  0  0  0  0  0
   16.3127    9.5597    9.6056 C   0  0  0  0  0  0  0  0  0  0  0  0
   16.1481    9.0116    8.6060 N   0  0  0  0  0  0  0  0  0  0  0  0
   15.3188    9.7672   11.8010 C   0  0  0  0  0  0  0  0  0  0  0  0
   14.6852    8.4916   11.6099 N   0  0  0  0  0  0  0  0  0  0  0  0
   15.1793    7.3301   12.1228 C   0  0  0  0  0  0  0  0  0  0  0  0
   16.1223    7.2631   12.9821 N   0  0  0  0  0  0  0  0  0  0  0  0
   14.6089    6.2313   11.5701 N   0  0  0  0  0  0  0  0  0  0  0  0
   13.8742    6.6362   10.3890 C   0  0  0  0  0  0  0  0  0  0  0  0
   13.9910    8.1442   10.4518 C   0  0  0  0  0  0  0  0  0  0  0  0
   13.5213    8.8821    9.5974 O   0  0  0  0  0  0  0  0  0  0  0  0
  1  2  1  0
  2  3  1  0
  3  4  1  0
  4  5  1  6
  5  6  1  0
  4  7  1  0
  7  8  2  0
  7  9  1  0
  9 10  1  0
 10 11  2  0
 11 12  1  0
 12 13  2  0
 13 14  1  0
 13 15  1  0
 15 16  1  0
 16 17  3  0
 15 18  2  0
 18 19  1  0
 19 20  1  0
 20 21  2  3
 20 22  1  0
 22 23  1  0
 23 24  1  0
 24 25  2  0
 18 10  1  0
 24 19  1  0
M  END
>  <HIPPO ID>  (157) 
56293

>  <ref_url>  (157) 
None

>  <ref_pdb>  (157) 
c0270a

>  <inchikey>  (157) 
SUOGJPMIZNUKGU-GFCCVEGCSA-N

>  <original SMILES>  (157) 
CCO[C@H](CC)C(=O)Nc1ccc(O)c(C#N)c1N1C(=N)NCC1=O

>  <generation_date>  (157) 
None

>  <tags>  (157) 
[]

>  <ref_mols>  (157) 
c0553a,c0935a

>  <alias>  (157) 
None

>  <original ID>  (157) 
SUOGJPMIZNUKGU-GFCCVEGCSA-N

>  <exports>  (157) 
['/opt/xchem-fragalysis-2/maxwin/CHIKV_HIPPO/hippo_prod/CHIKV_prod11_recipes/Recipe_1GERJCJ_poses.sdf', '/opt/xchem-fragalysis-2/maxwin/CHIKV_HIPPO/hippo_prod/CHIKV_prod11c_recipes/Recipe_1GJXK8G_poses.sdf', '/opt/xchem-fragalysis-2/maxwin/CHIKV_HIPPO/hippo_prod/CHIKV_prod11c_recipes/Recipe_1GJXW46_poses.sdf']

>  <method>  (157) 
None

>  <submitter_email>  (157) 
None

>  <submitter_name>  (157) 
None

$$$$
SUOGJPMIZNUKGU-LBPRGKRZSA-N
     RDKit          3D

 25 26  0  0  0  0  0  0  0  0999 V2000
   18.4287    9.1023   17.4139 C   0  0  0  0  0  0  0  0  0  0  0  0
   17.1033    9.8071   17.1645 C   0  0  0  0  0  0  0  0  0  0  0  0
   16.7997    9.9092   15.7867 O   0  0  0  0  0  0  0  0  0  0  0  0
   16.0533    8.8653   15.1599 C   0  0  1  0  0  0  0  0  0  0  0  0
   16.3097    7.3904   15.4814 C   0  0  0  0  0  0  0  0  0  0  0  0
   15.8548    6.8420   16.8228 C   0  0  0  0  0  0  0  0  0  0  0  0
   14.5641    9.2566   15.1563 C   0  0  0  0  0  0  0  0  0  0  0  0
   13.8365    9.1195   16.1401 O   0  0  0  0  0  0  0  0  0  0  0  0
   14.0336    9.8978   14.0636 N   0  0  0  0  0  0  0  0  0  0  0  0
   14.7865   10.2861   12.9676 C   0  0  0  0  0  0  0  0  0  0  0  0
   15.1586   11.6423   12.9746 C   0  0  0  0  0  0  0  0  0  0  0  0
   16.1922   12.0664   12.1635 C   0  0  0  0  0  0  0  0  0  0  0  0
   16.7279   11.1737   11.2570 C   0  0  0  0  0  0  0  0  0  0  0  0
   17.8533   11.5075   10.5774 O   0  0  0  0  0  0  0  0  0  0  0  0
   16.1200    9.9314   11.0479 C   0  0  0  0  0  0  0  0  0  0  0  0
   16.0277    9.4411    9.7119 C   0  0  0  0  0  0  0  0  0  0  0  0
   15.6076    9.0155    8.7218 N   0  0  0  0  0  0  0  0  0  0  0  0
   15.2452    9.3709   12.0007 C   0  0  0  0  0  0  0  0  0  0  0  0
   14.7771    8.0226   11.8053 N   0  0  0  0  0  0  0  0  0  0  0  0
   15.4965    6.9771   11.3568 C   0  0  0  0  0  0  0  0  0  0  0  0
   16.6585    6.6745   11.8011 N   0  0  0  0  0  0  0  0  0  0  0  0
   14.7633    6.0597   10.6666 N   0  0  0  0  0  0  0  0  0  0  0  0
   13.4196    6.2564   11.1687 C   0  0  0  0  0  0  0  0  0  0  0  0
   13.6745    7.3364   12.2210 C   0  0  0  0  0  0  0  0  0  0  0  0
   13.0357    7.3788   13.2595 O   0  0  0  0  0  0  0  0  0  0  0  0
  1  2  1  0
  2  3  1  0
  3  4  1  0
  4  5  1  1
  5  6  1  0
  4  7  1  0
  7  8  2  0
  7  9  1  0
  9 10  1  0
 10 11  2  0
 11 12  1  0
 12 13  2  0
 13 14  1  0
 13 15  1  0
 15 16  1  0
 16 17  3  0
 15 18  2  0
 18 19  1  0
 19 20  1  0
 20 21  2  3
 20 22  1  0
 22 23  1  0
 23 24  1  0
 24 25  2  0
 18 10  1  0
 24 19  1  0
M  END
>  <HIPPO ID>  (158) 
56294

>  <ref_url>  (158) 
None

>  <ref_pdb>  (158) 
c0270a

>  <inchikey>  (158) 
SUOGJPMIZNUKGU-LBPRGKRZSA-N

>  <original SMILES>  (158) 
CCO[C@@H](CC)C(=O)Nc1ccc(O)c(C#N)c1N1C(=N)NCC1=O

>  <generation_date>  (158) 
None

>  <tags>  (158) 
[]

>  <ref_mols>  (158) 
c0553a,c0935a

>  <alias>  (158) 
None

>  <original ID>  (158) 
SUOGJPMIZNUKGU-LBPRGKRZSA-N

>  <exports>  (158) 
['/opt/xchem-fragalysis-2/maxwin/CHIKV_HIPPO/hippo_prod/CHIKV_prod11_recipes/Recipe_1GERJCJ_poses.sdf', '/opt/xchem-fragalysis-2/maxwin/CHIKV_HIPPO/hippo_prod/CHIKV_prod11c_recipes/Recipe_1GJXK8G_poses.sdf', '/opt/xchem-fragalysis-2/maxwin/CHIKV_HIPPO/hippo_prod/CHIKV_prod11c_recipes/Recipe_1GJXW46_poses.sdf']

>  <method>  (158) 
None

>  <submitter_email>  (158) 
None

>  <submitter_name>  (158) 
None

$$$$
JWGSUNWTIUDXAS-GFCCVEGCSA-N
     RDKit          3D

 25 26  0  0  0  0  0  0  0  0999 V2000
   15.9429   12.2151   17.2839 C   0  0  0  0  0  0  0  0  0  0  0  0
   16.7958   10.9726   17.1503 C   0  0  0  0  0  0  0  0  0  0  0  0
   16.6030   10.4097   15.8509 O   0  0  0  0  0  0  0  0  0  0  0  0
   15.6869    9.3284   15.8444 C   0  0  2  0  0  0  0  0  0  0  0  0
   16.4098    8.0629   15.3775 C   0  0  0  0  0  0  0  0  0  0  0  0
   17.4622    7.5886   16.3727 C   0  0  0  0  0  0  0  0  0  0  0  0
   14.3758    9.5341   15.0602 C   0  0  0  0  0  0  0  0  0  0  0  0
   13.3630    8.8956   15.3759 O   0  0  0  0  0  0  0  0  0  0  0  0
   14.2458   10.3755   13.9967 N   0  0  0  0  0  0  0  0  0  0  0  0
   15.2321   10.5999   13.0358 C   0  0  0  0  0  0  0  0  0  0  0  0
   15.9789   11.7670   13.2054 C   0  0  0  0  0  0  0  0  0  0  0  0
   16.9605   12.0950   12.2908 C   0  0  0  0  0  0  0  0  0  0  0  0
   17.1377   11.2955   11.1809 C   0  0  0  0  0  0  0  0  0  0  0  0
   18.2527   11.5427   10.4422 O   0  0  0  0  0  0  0  0  0  0  0  0
   16.2385   10.2713   10.8941 C   0  0  0  0  0  0  0  0  0  0  0  0
   16.2795    9.6535    9.6247 C   0  0  0  0  0  0  0  0  0  0  0  0
   16.2341    9.0732    8.6295 N   0  0  0  0  0  0  0  0  0  0  0  0
   15.3122    9.8280   11.8523 C   0  0  0  0  0  0  0  0  0  0  0  0
   14.5481    8.6518   11.6532 N   0  0  0  0  0  0  0  0  0  0  0  0
   14.8553    7.4778   12.4705 C   0  0  0  0  0  0  0  0  0  0  0  0
   14.3205    6.3447   11.6094 C   0  0  0  0  0  0  0  0  0  0  0  0
   14.2481    5.1742   11.9405 O   0  0  0  0  0  0  0  0  0  0  0  0
   13.9442    6.8716   10.4132 N   0  0  0  0  0  0  0  0  0  0  0  0
   14.0450    8.2108   10.4425 C   0  0  0  0  0  0  0  0  0  0  0  0
   13.6541    8.9050    9.4405 N   0  0  0  0  0  0  0  0  0  0  0  0
  1  2  1  0
  2  3  1  0
  3  4  1  0
  4  5  1  6
  5  6  1  0
  4  7  1  0
  7  8  2  0
  7  9  1  0
  9 10  1  0
 10 11  2  0
 11 12  1  0
 12 13  2  0
 13 14  1  0
 13 15  1  0
 15 16  1  0
 16 17  3  0
 15 18  2  0
 18 19  1  0
 19 20  1  0
 20 21  1  0
 21 22  2  0
 21 23  1  0
 23 24  1  0
 24 25  2  3
 18 10  1  0
 24 19  1  0
M  END
>  <HIPPO ID>  (159) 
56299

>  <ref_url>  (159) 
None

>  <ref_pdb>  (159) 
c0270a

>  <inchikey>  (159) 
JWGSUNWTIUDXAS-GFCCVEGCSA-N

>  <original SMILES>  (159) 
CCO[C@H](CC)C(=O)Nc1ccc(O)c(C#N)c1N1CC(=O)NC1=N

>  <generation_date>  (159) 
None

>  <tags>  (159) 
[]

>  <ref_mols>  (159) 
c0553a,c0935a

>  <alias>  (159) 
None

>  <original ID>  (159) 
JWGSUNWTIUDXAS-GFCCVEGCSA-N

>  <exports>  (159) 
['/opt/xchem-fragalysis-2/maxwin/CHIKV_HIPPO/hippo_prod/CHIKV_prod11c_recipes/Recipe_1GJXK8G_poses.sdf', '/opt/xchem-fragalysis-2/maxwin/CHIKV_HIPPO/hippo_prod/CHIKV_prod11c_recipes/Recipe_1GJXW46_poses.sdf']

>  <method>  (159) 
None

>  <submitter_email>  (159) 
None

>  <submitter_name>  (159) 
None

$$$$
JWGSUNWTIUDXAS-LBPRGKRZSA-N
     RDKit          3D

 25 26  0  0  0  0  0  0  0  0999 V2000
   17.0176   11.0687   18.0144 C   0  0  0  0  0  0  0  0  0  0  0  0
   16.1471   11.2662   16.7896 C   0  0  0  0  0  0  0  0  0  0  0  0
   16.6664   10.5496   15.6761 O   0  0  0  0  0  0  0  0  0  0  0  0
   15.9479    9.3890   15.2818 C   0  0  1  0  0  0  0  0  0  0  0  0
   16.0820    8.2156   16.2590 C   0  0  0  0  0  0  0  0  0  0  0  0
   17.5174    7.7459   16.4417 C   0  0  0  0  0  0  0  0  0  0  0  0
   14.4654    9.6381   14.9038 C   0  0  0  0  0  0  0  0  0  0  0  0
   13.5252    9.0385   15.4265 O   0  0  0  0  0  0  0  0  0  0  0  0
   14.1860   10.5422   13.9088 N   0  0  0  0  0  0  0  0  0  0  0  0
   15.0950   10.7904   12.8785 C   0  0  0  0  0  0  0  0  0  0  0  0
   15.8334   11.9688   13.0138 C   0  0  0  0  0  0  0  0  0  0  0  0
   16.8838   12.2153   12.1530 C   0  0  0  0  0  0  0  0  0  0  0  0
   17.1174   11.3389   11.1133 C   0  0  0  0  0  0  0  0  0  0  0  0
   18.2813   11.5136   10.4310 O   0  0  0  0  0  0  0  0  0  0  0  0
   16.2160   10.3147   10.8373 C   0  0  0  0  0  0  0  0  0  0  0  0
   16.2814    9.6505    9.5957 C   0  0  0  0  0  0  0  0  0  0  0  0
   16.2339    9.0406    8.6196 N   0  0  0  0  0  0  0  0  0  0  0  0
   15.2493    9.9249   11.7742 C   0  0  0  0  0  0  0  0  0  0  0  0
   14.5343    8.7111   11.6356 N   0  0  0  0  0  0  0  0  0  0  0  0
   14.9134    7.5672   12.4716 C   0  0  0  0  0  0  0  0  0  0  0  0
   14.4034    6.3943   11.6470 C   0  0  0  0  0  0  0  0  0  0  0  0
   14.3702    5.2312   12.0092 O   0  0  0  0  0  0  0  0  0  0  0  0
   13.9935    6.8768   10.4431 N   0  0  0  0  0  0  0  0  0  0  0  0
   14.0454    8.2188   10.4375 C   0  0  0  0  0  0  0  0  0  0  0  0
   13.6348    8.8752    9.4178 N   0  0  0  0  0  0  0  0  0  0  0  0
  1  2  1  0
  2  3  1  0
  3  4  1  0
  4  5  1  1
  5  6  1  0
  4  7  1  0
  7  8  2  0
  7  9  1  0
  9 10  1  0
 10 11  2  0
 11 12  1  0
 12 13  2  0
 13 14  1  0
 13 15  1  0
 15 16  1  0
 16 17  3  0
 15 18  2  0
 18 19  1  0
 19 20  1  0
 20 21  1  0
 21 22  2  0
 21 23  1  0
 23 24  1  0
 24 25  2  3
 18 10  1  0
 24 19  1  0
M  END
>  <HIPPO ID>  (160) 
56300

>  <ref_url>  (160) 
None

>  <ref_pdb>  (160) 
c0270a

>  <inchikey>  (160) 
JWGSUNWTIUDXAS-LBPRGKRZSA-N

>  <original SMILES>  (160) 
CCO[C@@H](CC)C(=O)Nc1ccc(O)c(C#N)c1N1CC(=O)NC1=N

>  <generation_date>  (160) 
None

>  <tags>  (160) 
[]

>  <ref_mols>  (160) 
c0553a,c0935a

>  <alias>  (160) 
None

>  <original ID>  (160) 
JWGSUNWTIUDXAS-LBPRGKRZSA-N

>  <exports>  (160) 
['/opt/xchem-fragalysis-2/maxwin/CHIKV_HIPPO/hippo_prod/CHIKV_prod11c_recipes/Recipe_1GJXK8G_poses.sdf', '/opt/xchem-fragalysis-2/maxwin/CHIKV_HIPPO/hippo_prod/CHIKV_prod11c_recipes/Recipe_1GJXW46_poses.sdf']

>  <method>  (160) 
None

>  <submitter_email>  (160) 
None

>  <submitter_name>  (160) 
None

$$$$
WKWFATFSDWZIJI-UHFFFAOYSA-N
     RDKit          3D

 15 16  0  0  0  0  0  0  0  0999 V2000
   14.5230   13.8079   12.2202 C   0  0  0  0  0  0  0  0  0  0  0  0
   14.6535   12.3817   12.5531 C   0  0  0  0  0  0  0  0  0  0  0  0
   14.6968   11.5823   11.4472 N   0  0  0  0  0  0  0  0  0  0  0  0
   14.8212   10.2669   11.6360 C   0  0  0  0  0  0  0  0  0  0  0  0
   14.8028    9.4016   10.5365 C   0  0  0  0  0  0  0  0  0  0  0  0
   14.7921    8.0181   10.7136 C   0  0  0  0  0  0  0  0  0  0  0  0
   14.8562    7.4994   12.0034 C   0  0  0  0  0  0  0  0  0  0  0  0
   14.9346    8.3678   13.1032 C   0  0  0  0  0  0  0  0  0  0  0  0
   14.9131    9.7530   12.9468 C   0  0  0  0  0  0  0  0  0  0  0  0
   14.9682   10.5732   14.0270 N   0  0  0  0  0  0  0  0  0  0  0  0
   14.8750   11.9189   13.8433 C   0  0  0  0  0  0  0  0  0  0  0  0
   15.0570   12.8493   15.0666 C   0  0  0  0  0  0  0  0  0  0  0  0
   13.7952   13.6761   15.3512 C   0  0  0  0  0  0  0  0  0  0  0  0
   16.2244   13.8587   14.9857 C   0  0  0  0  0  0  0  0  0  0  0  0
   15.3880   11.9996   16.3091 C   0  0  0  0  0  0  0  0  0  0  0  0
  1  2  1  0
  2  3  2  0
  3  4  1  0
  4  5  2  0
  5  6  1  0
  6  7  2  0
  7  8  1  0
  8  9  2  0
  9 10  1  0
 10 11  2  0
 11 12  1  0
 12 13  1  0
 12 14  1  0
 12 15  1  0
 11  2  1  0
  9  4  1  0
M  END
>  <HIPPO ID>  (161) 
64840

>  <ref_url>  (161) 
None

>  <ref_pdb>  (161) 
c0300a

>  <inchikey>  (161) 
WKWFATFSDWZIJI-UHFFFAOYSA-N

>  <original SMILES>  (161) 
Cc1nc2ccccc2nc1C(C)(C)C

>  <generation_date>  (161) 
None

>  <tags>  (161) 
[]

>  <ref_mols>  (161) 
c0839a,c1299a

>  <alias>  (161) 
None

>  <original ID>  (161) 
WKWFATFSDWZIJI-UHFFFAOYSA-N

>  <exports>  (161) 
['/opt/xchem-fragalysis-2/maxwin/CHIKV_HIPPO/hippo_prod/CHIKV_prod11_recipes/Recipe_1G8PPKY_poses.sdf', '/opt/xchem-fragalysis-2/maxwin/CHIKV_HIPPO/hippo_prod/CHIKV_prod11b_recipes/Recipe_1GFD8FK_poses.sdf', '/opt/xchem-fragalysis-2/maxwin/CHIKV_HIPPO/hippo_prod/CHIKV_prod11c_recipes/Recipe_1GJWBFH_poses.sdf', '/opt/xchem-fragalysis-2/maxwin/CHIKV_HIPPO/hippo_prod/CHIKV_prod11c_recipes/Recipe_1GJXK8G_poses.sdf', '/opt/xchem-fragalysis-2/maxwin/CHIKV_HIPPO/hippo_prod/CHIKV_prod11c_recipes/Recipe_1GJXW46_poses.sdf']

>  <method>  (161) 
None

>  <submitter_email>  (161) 
None

>  <submitter_name>  (161) 
None

$$$$
JTWXPXYTTCHQFH-GMZHKTEUSA-N
     RDKit          3D

 15 18  0  0  0  0  0  0  0  0999 V2000
   13.9662   13.2595   11.7718 C   0  0  0  0  0  0  0  0  0  0  0  0
   14.5441   11.9330   12.0535 C   0  0  0  0  0  0  0  0  0  0  0  0
   14.6344   11.0923   10.9976 N   0  0  0  0  0  0  0  0  0  0  0  0
   14.8065    9.8053   11.2983 C   0  0  0  0  0  0  0  0  0  0  0  0
   14.7426    8.8620   10.2803 C   0  0  0  0  0  0  0  0  0  0  0  0
   14.7291    7.5031   10.5812 C   0  0  0  0  0  0  0  0  0  0  0  0
   14.8532    7.0853   11.9022 C   0  0  0  0  0  0  0  0  0  0  0  0
   14.9667    8.0306   12.9254 C   0  0  0  0  0  0  0  0  0  0  0  0
   14.9329    9.3920   12.6527 C   0  0  0  0  0  0  0  0  0  0  0  0
   15.0160   10.2812   13.6674 N   0  0  0  0  0  0  0  0  0  0  0  0
   14.8462   11.5905   13.3728 C   0  0  0  0  0  0  0  0  0  0  0  0
   15.1648   12.6600   14.3660 C   0  0  1  0  0  0  0  0  0  0  0  0
   16.2563   12.6409   15.3751 C   0  0  0  0  0  0  0  0  0  0  0  0
   14.8510   12.4893   15.8374 C   0  0  1  0  0  0  0  0  0  0  0  0
   14.2784   13.6227   15.0546 C   0  0  0  0  0  0  0  0  0  0  0  0
  1  2  1  0
  2  3  2  0
  3  4  1  0
  4  5  2  0
  5  6  1  0
  6  7  2  0
  7  8  1  0
  8  9  2  0
  9 10  1  0
 10 11  2  0
 12 11  1  6
 12 13  1  0
 14 13  1  1
 14 15  1  0
 11  2  1  0
 14 12  1  0
  9  4  1  0
 15 12  1  0
M  END
>  <HIPPO ID>  (162) 
64854

>  <ref_url>  (162) 
None

>  <ref_pdb>  (162) 
c0300a

>  <inchikey>  (162) 
JTWXPXYTTCHQFH-GMZHKTEUSA-N

>  <original SMILES>  (162) 
Cc1nc2ccccc2nc1[C@]12C[C@H]1C2

>  <generation_date>  (162) 
None

>  <tags>  (162) 
[]

>  <ref_mols>  (162) 
c0839a,c1299a

>  <alias>  (162) 
None

>  <original ID>  (162) 
JTWXPXYTTCHQFH-GMZHKTEUSA-N

>  <exports>  (162) 
['/opt/xchem-fragalysis-2/maxwin/CHIKV_HIPPO/hippo_prod/CHIKV_prod11_recipes/Recipe_1G8PPKY_poses.sdf', '/opt/xchem-fragalysis-2/maxwin/CHIKV_HIPPO/hippo_prod/CHIKV_prod11c_recipes/Recipe_1GJWBFH_poses.sdf', '/opt/xchem-fragalysis-2/maxwin/CHIKV_HIPPO/hippo_prod/CHIKV_prod11c_recipes/Recipe_1GJXK8G_poses.sdf', '/opt/xchem-fragalysis-2/maxwin/CHIKV_HIPPO/hippo_prod/CHIKV_prod11c_recipes/Recipe_1GJXW46_poses.sdf']

>  <method>  (162) 
None

>  <submitter_email>  (162) 
None

>  <submitter_name>  (162) 
None

$$$$
UUEBHTHWLMOVGK-UHFFFAOYSA-N
     RDKit          3D

 16 18  0  0  0  0  0  0  0  0999 V2000
   13.9834   12.6111   10.0862 O   0  0  0  0  0  0  0  0  0  0  0  0
   13.0175   13.2424   10.9144 C   0  0  0  0  0  0  0  0  0  0  0  0
   13.2382   12.9888   12.3865 C   0  0  0  0  0  0  0  0  0  0  0  0
   14.5421   13.2234   13.0592 C   0  0  0  0  0  0  0  0  0  0  0  0
   15.1333   11.8364   13.1415 C   0  0  0  0  0  0  0  0  0  0  0  0
   15.0654   11.0388   14.2682 C   0  0  0  0  0  0  0  0  0  0  0  0
   14.9903    9.6881   14.2018 N   0  0  0  0  0  0  0  0  0  0  0  0
   14.9321    9.1332   12.9726 C   0  0  0  0  0  0  0  0  0  0  0  0
   14.7593    7.7618   12.8237 C   0  0  0  0  0  0  0  0  0  0  0  0
   14.6402    7.1732   11.5598 C   0  0  0  0  0  0  0  0  0  0  0  0
   14.7041    7.9624   10.4177 C   0  0  0  0  0  0  0  0  0  0  0  0
   14.9197    9.3313   10.5454 C   0  0  0  0  0  0  0  0  0  0  0  0
   15.0351    9.9224   11.8076 C   0  0  0  0  0  0  0  0  0  0  0  0
   15.2535   11.2445   11.9106 N   0  0  0  0  0  0  0  0  0  0  0  0
   15.0858   14.6247   13.0083 C   0  0  0  0  0  0  0  0  0  0  0  0
   14.6279   14.0854   14.3166 C   0  0  0  0  0  0  0  0  0  0  0  0
  1  2  1  0
  2  3  1  0
  3  4  1  0
  4  5  1  0
  5  6  2  0
  6  7  1  0
  7  8  2  0
  8  9  1  0
  9 10  2  0
 10 11  1  0
 11 12  2  0
 12 13  1  0
 13 14  2  0
  4 15  1  0
 15 16  1  0
 16  4  1  0
 14  5  1  0
 13  8  1  0
M  END
>  <HIPPO ID>  (163) 
64953

>  <ref_url>  (163) 
None

>  <ref_pdb>  (163) 
c0300a

>  <inchikey>  (163) 
UUEBHTHWLMOVGK-UHFFFAOYSA-N

>  <original SMILES>  (163) 
OCCC1(c2cnc3ccccc3n2)CC1

>  <generation_date>  (163) 
None

>  <tags>  (163) 
[]

>  <ref_mols>  (163) 
c0839a,c1299a

>  <alias>  (163) 
None

>  <original ID>  (163) 
UUEBHTHWLMOVGK-UHFFFAOYSA-N

>  <exports>  (163) 
['/opt/xchem-fragalysis-2/maxwin/CHIKV_HIPPO/hippo_prod/CHIKV_prod11_recipes/Recipe_1G8PPKY_poses.sdf', '/opt/xchem-fragalysis-2/maxwin/CHIKV_HIPPO/hippo_prod/CHIKV_prod11b_recipes/Recipe_1GFD8FK_poses.sdf', '/opt/xchem-fragalysis-2/maxwin/CHIKV_HIPPO/hippo_prod/CHIKV_prod11c_recipes/Recipe_1GJWBFH_poses.sdf', '/opt/xchem-fragalysis-2/maxwin/CHIKV_HIPPO/hippo_prod/CHIKV_prod11c_recipes/Recipe_1GJXK8G_poses.sdf', '/opt/xchem-fragalysis-2/maxwin/CHIKV_HIPPO/hippo_prod/CHIKV_prod11c_recipes/Recipe_1GJXW46_poses.sdf']

>  <method>  (163) 
None

>  <submitter_email>  (163) 
None

>  <submitter_name>  (163) 
None

$$$$
SKIPFALYEWOFIC-CYBMUJFWSA-N
     RDKit          3D

 16 18  0  0  0  0  0  0  0  0999 V2000
   13.5203   13.4901   14.4507 C   0  0  0  0  0  0  0  0  0  0  0  0
   14.8493   13.3622   13.7648 C   0  0  1  0  0  0  0  0  0  0  0  0
   14.9194   11.9277   13.2793 C   0  0  0  0  0  0  0  0  0  0  0  0
   14.9589   10.8986   14.2073 C   0  0  0  0  0  0  0  0  0  0  0  0
   14.9110    9.5979   13.8724 N   0  0  0  0  0  0  0  0  0  0  0  0
   14.8591    9.3185   12.5644 C   0  0  0  0  0  0  0  0  0  0  0  0
   14.7717    7.9851   12.1756 C   0  0  0  0  0  0  0  0  0  0  0  0
   14.7063    7.6307   10.8300 C   0  0  0  0  0  0  0  0  0  0  0  0
   14.7584    8.6240    9.8616 C   0  0  0  0  0  0  0  0  0  0  0  0
   14.8583    9.9636   10.2414 C   0  0  0  0  0  0  0  0  0  0  0  0
   14.8782   10.3441   11.5833 C   0  0  0  0  0  0  0  0  0  0  0  0
   14.9059   11.6519   11.9444 N   0  0  0  0  0  0  0  0  0  0  0  0
   14.9707   14.4267   12.6945 C   0  0  0  0  0  0  0  0  0  0  0  0
   15.3849   15.6452   13.4827 C   0  0  0  0  0  0  0  0  0  0  0  0
   16.2783   15.1353   14.4703 O   0  0  0  0  0  0  0  0  0  0  0  0
   15.8824   13.7984   14.8045 C   0  0  0  0  0  0  0  0  0  0  0  0
  2  1  1  1
  2  3  1  0
  3  4  2  0
  4  5  1  0
  5  6  2  0
  6  7  1  0
  7  8  2  0
  8  9  1  0
  9 10  2  0
 10 11  1  0
 11 12  2  0
  2 13  1  0
 13 14  1  0
 14 15  1  0
 15 16  1  0
 16  2  1  0
 12  3  1  0
 11  6  1  0
M  END
>  <HIPPO ID>  (164) 
64954

>  <ref_url>  (164) 
None

>  <ref_pdb>  (164) 
c0300a

>  <inchikey>  (164) 
SKIPFALYEWOFIC-CYBMUJFWSA-N

>  <original SMILES>  (164) 
C[C@@]1(c2cnc3ccccc3n2)CCOC1

>  <generation_date>  (164) 
None

>  <tags>  (164) 
[]

>  <ref_mols>  (164) 
c0839a,c1299a

>  <alias>  (164) 
None

>  <original ID>  (164) 
SKIPFALYEWOFIC-CYBMUJFWSA-N

>  <exports>  (164) 
['/opt/xchem-fragalysis-2/maxwin/CHIKV_HIPPO/hippo_prod/CHIKV_prod11c_recipes/Recipe_1GJWBFH_poses.sdf', '/opt/xchem-fragalysis-2/maxwin/CHIKV_HIPPO/hippo_prod/CHIKV_prod11c_recipes/Recipe_1GJXK8G_poses.sdf', '/opt/xchem-fragalysis-2/maxwin/CHIKV_HIPPO/hippo_prod/CHIKV_prod11c_recipes/Recipe_1GJXW46_poses.sdf']

>  <method>  (164) 
None

>  <submitter_email>  (164) 
None

>  <submitter_name>  (164) 
None

$$$$
SKIPFALYEWOFIC-ZDUSSCGKSA-N
     RDKit          3D

 16 18  0  0  0  0  0  0  0  0999 V2000
   13.5196   13.4769   14.5579 C   0  0  0  0  0  0  0  0  0  0  0  0
   14.8379   13.3720   13.8399 C   0  0  2  0  0  0  0  0  0  0  0  0
   14.9643   11.9344   13.3898 C   0  0  0  0  0  0  0  0  0  0  0  0
   15.0242   10.9175   14.3232 C   0  0  0  0  0  0  0  0  0  0  0  0
   14.9629    9.6132   13.9943 N   0  0  0  0  0  0  0  0  0  0  0  0
   14.8831    9.3206   12.6871 C   0  0  0  0  0  0  0  0  0  0  0  0
   14.7897    7.9857   12.3009 C   0  0  0  0  0  0  0  0  0  0  0  0
   14.7175    7.6243   10.9551 C   0  0  0  0  0  0  0  0  0  0  0  0
   14.7631    8.6118    9.9794 C   0  0  0  0  0  0  0  0  0  0  0  0
   14.8601    9.9532   10.3555 C   0  0  0  0  0  0  0  0  0  0  0  0
   14.8928   10.3364   11.6989 C   0  0  0  0  0  0  0  0  0  0  0  0
   14.9328   11.6428   12.0557 N   0  0  0  0  0  0  0  0  0  0  0  0
   15.8336   13.9899   14.8117 C   0  0  0  0  0  0  0  0  0  0  0  0
   15.7397   15.4794   14.4901 C   0  0  0  0  0  0  0  0  0  0  0  0
   14.9836   15.6387   13.2794 O   0  0  0  0  0  0  0  0  0  0  0  0
   14.8480   14.3464   12.6886 C   0  0  0  0  0  0  0  0  0  0  0  0
  2  1  1  1
  2  3  1  0
  3  4  2  0
  4  5  1  0
  5  6  2  0
  6  7  1  0
  7  8  2  0
  8  9  1  0
  9 10  2  0
 10 11  1  0
 11 12  2  0
  2 13  1  0
 13 14  1  0
 14 15  1  0
 15 16  1  0
 16  2  1  0
 12  3  1  0
 11  6  1  0
M  END
>  <HIPPO ID>  (165) 
64955

>  <ref_url>  (165) 
None

>  <ref_pdb>  (165) 
c0300a

>  <inchikey>  (165) 
SKIPFALYEWOFIC-ZDUSSCGKSA-N

>  <original SMILES>  (165) 
C[C@]1(c2cnc3ccccc3n2)CCOC1

>  <generation_date>  (165) 
None

>  <tags>  (165) 
[]

>  <ref_mols>  (165) 
c0839a,c1299a

>  <alias>  (165) 
None

>  <original ID>  (165) 
SKIPFALYEWOFIC-ZDUSSCGKSA-N

>  <exports>  (165) 
['/opt/xchem-fragalysis-2/maxwin/CHIKV_HIPPO/hippo_prod/CHIKV_prod11c_recipes/Recipe_1GJWBFH_poses.sdf', '/opt/xchem-fragalysis-2/maxwin/CHIKV_HIPPO/hippo_prod/CHIKV_prod11c_recipes/Recipe_1GJXK8G_poses.sdf', '/opt/xchem-fragalysis-2/maxwin/CHIKV_HIPPO/hippo_prod/CHIKV_prod11c_recipes/Recipe_1GJXW46_poses.sdf']

>  <method>  (165) 
None

>  <submitter_email>  (165) 
None

>  <submitter_name>  (165) 
None

$$$$
HRCACOGSAJOGSI-UHFFFAOYSA-N
     RDKit          3D

 17 19  0  0  0  0  0  0  0  0999 V2000
   14.1807   13.2773   11.8167 C   0  0  0  0  0  0  0  0  0  0  0  0
   14.6007   11.9359   12.2299 C   0  0  0  0  0  0  0  0  0  0  0  0
   14.6725   11.0801   11.1760 N   0  0  0  0  0  0  0  0  0  0  0  0
   14.8146    9.7904   11.4514 C   0  0  0  0  0  0  0  0  0  0  0  0
   14.7621    8.8653   10.4129 C   0  0  0  0  0  0  0  0  0  0  0  0
   14.7486    7.5022   10.6884 C   0  0  0  0  0  0  0  0  0  0  0  0
   14.8560    7.0683   12.0056 C   0  0  0  0  0  0  0  0  0  0  0  0
   14.9496    8.0012   13.0447 C   0  0  0  0  0  0  0  0  0  0  0  0
   14.9147    9.3673   12.7938 C   0  0  0  0  0  0  0  0  0  0  0  0
   14.9724   10.2541   13.8154 N   0  0  0  0  0  0  0  0  0  0  0  0
   14.8727   11.5896   13.5567 C   0  0  0  0  0  0  0  0  0  0  0  0
   15.2855   12.5676   14.7291 C   0  0  0  0  0  0  0  0  0  0  0  0
   14.9274   14.0555   14.7289 C   0  0  0  0  0  0  0  0  0  0  0  0
   13.5227   14.2938   15.2313 C   0  0  0  0  0  0  0  0  0  0  0  0
   13.1830   15.6708   15.1814 O   0  0  0  0  0  0  0  0  0  0  0  0
   16.6583   12.2653   15.3343 C   0  0  0  0  0  0  0  0  0  0  0  0
   15.4281   11.9532   16.1210 C   0  0  0  0  0  0  0  0  0  0  0  0
  1  2  1  0
  2  3  2  0
  3  4  1  0
  4  5  2  0
  5  6  1  0
  6  7  2  0
  7  8  1  0
  8  9  2  0
  9 10  1  0
 10 11  2  0
 11 12  1  0
 12 13  1  0
 13 14  1  0
 14 15  1  0
 12 16  1  0
 16 17  1  0
 11  2  1  0
 17 12  1  0
  9  4  1  0
M  END
>  <HIPPO ID>  (166) 
65255

>  <ref_url>  (166) 
None

>  <ref_pdb>  (166) 
c0300a

>  <inchikey>  (166) 
HRCACOGSAJOGSI-UHFFFAOYSA-N

>  <original SMILES>  (166) 
Cc1nc2ccccc2nc1C1(CCO)CC1

>  <generation_date>  (166) 
None

>  <tags>  (166) 
[]

>  <ref_mols>  (166) 
c0839a,c1299a

>  <alias>  (166) 
None

>  <original ID>  (166) 
HRCACOGSAJOGSI-UHFFFAOYSA-N

>  <exports>  (166) 
['/opt/xchem-fragalysis-2/maxwin/CHIKV_HIPPO/hippo_prod/CHIKV_prod11_recipes/Recipe_1G8PPKY_poses.sdf', '/opt/xchem-fragalysis-2/maxwin/CHIKV_HIPPO/hippo_prod/CHIKV_prod11b_recipes/Recipe_1GFD8FK_poses.sdf', '/opt/xchem-fragalysis-2/maxwin/CHIKV_HIPPO/hippo_prod/CHIKV_prod11c_recipes/Recipe_1GJWBFH_poses.sdf', '/opt/xchem-fragalysis-2/maxwin/CHIKV_HIPPO/hippo_prod/CHIKV_prod11c_recipes/Recipe_1GJXK8G_poses.sdf', '/opt/xchem-fragalysis-2/maxwin/CHIKV_HIPPO/hippo_prod/CHIKV_prod11c_recipes/Recipe_1GJXW46_poses.sdf']

>  <method>  (166) 
None

>  <submitter_email>  (166) 
None

>  <submitter_name>  (166) 
None

$$$$
RLIYILQTMXITGN-CQSZACIVSA-N
     RDKit          3D

 17 19  0  0  0  0  0  0  0  0999 V2000
   13.6661   13.3664   11.6453 C   0  0  0  0  0  0  0  0  0  0  0  0
   14.5236   12.2496   12.0466 C   0  0  0  0  0  0  0  0  0  0  0  0
   14.6497   11.3086   11.0794 N   0  0  0  0  0  0  0  0  0  0  0  0
   14.8424   10.0585   11.4862 C   0  0  0  0  0  0  0  0  0  0  0  0
   14.7978    9.0324   10.5422 C   0  0  0  0  0  0  0  0  0  0  0  0
   14.8081    7.6995   10.9449 C   0  0  0  0  0  0  0  0  0  0  0  0
   14.9187    7.4007   12.3003 C   0  0  0  0  0  0  0  0  0  0  0  0
   15.0171    8.4356   13.2443 C   0  0  0  0  0  0  0  0  0  0  0  0
   14.9748    9.7758   12.8664 C   0  0  0  0  0  0  0  0  0  0  0  0
   15.0513   10.7725   13.7917 N   0  0  0  0  0  0  0  0  0  0  0  0
   14.8636   12.0551   13.3812 C   0  0  0  0  0  0  0  0  0  0  0  0
   15.0998   13.1881   14.4022 C   0  0  2  0  0  0  0  0  0  0  0  0
   13.8872   13.3243   15.2934 C   0  0  0  0  0  0  0  0  0  0  0  0
   15.4055   14.6282   13.9379 C   0  0  0  0  0  0  0  0  0  0  0  0
   16.3775   15.1517   14.9713 C   0  0  0  0  0  0  0  0  0  0  0  0
   17.1406   14.0271   15.3821 O   0  0  0  0  0  0  0  0  0  0  0  0
   16.3180   12.8544   15.2907 C   0  0  0  0  0  0  0  0  0  0  0  0
  1  2  1  0
  2  3  2  0
  3  4  1  0
  4  5  2  0
  5  6  1  0
  6  7  2  0
  7  8  1  0
  8  9  2  0
  9 10  1  0
 10 11  2  0
 11 12  1  0
 12 13  1  1
 12 14  1  0
 14 15  1  0
 15 16  1  0
 16 17  1  0
 11  2  1  0
 17 12  1  0
  9  4  1  0
M  END
>  <HIPPO ID>  (167) 
65256

>  <ref_url>  (167) 
None

>  <ref_pdb>  (167) 
c0300a

>  <inchikey>  (167) 
RLIYILQTMXITGN-CQSZACIVSA-N

>  <original SMILES>  (167) 
Cc1nc2ccccc2nc1[C@]1(C)CCOC1

>  <generation_date>  (167) 
None

>  <tags>  (167) 
[]

>  <ref_mols>  (167) 
c0839a,c1299a

>  <alias>  (167) 
None

>  <original ID>  (167) 
RLIYILQTMXITGN-CQSZACIVSA-N

>  <exports>  (167) 
['/opt/xchem-fragalysis-2/maxwin/CHIKV_HIPPO/hippo_prod/CHIKV_prod11c_recipes/Recipe_1GJWBFH_poses.sdf', '/opt/xchem-fragalysis-2/maxwin/CHIKV_HIPPO/hippo_prod/CHIKV_prod11c_recipes/Recipe_1GJXK8G_poses.sdf', '/opt/xchem-fragalysis-2/maxwin/CHIKV_HIPPO/hippo_prod/CHIKV_prod11c_recipes/Recipe_1GJXW46_poses.sdf']

>  <method>  (167) 
None

>  <submitter_email>  (167) 
None

>  <submitter_name>  (167) 
None

$$$$
RLIYILQTMXITGN-AWEZNQCLSA-N
     RDKit          3D

 17 19  0  0  0  0  0  0  0  0999 V2000
   13.6377   13.3475   11.6097 C   0  0  0  0  0  0  0  0  0  0  0  0
   14.5226   12.2240   11.9355 C   0  0  0  0  0  0  0  0  0  0  0  0
   14.6382   11.3186   10.9329 N   0  0  0  0  0  0  0  0  0  0  0  0
   14.8347   10.0516   11.2947 C   0  0  0  0  0  0  0  0  0  0  0  0
   14.7777    9.0507   10.3278 C   0  0  0  0  0  0  0  0  0  0  0  0
   14.7702    7.7078   10.6989 C   0  0  0  0  0  0  0  0  0  0  0  0
   14.8785    7.3673   12.0443 C   0  0  0  0  0  0  0  0  0  0  0  0
   14.9953    8.3734   13.0127 C   0  0  0  0  0  0  0  0  0  0  0  0
   14.9750    9.7218   12.6626 C   0  0  0  0  0  0  0  0  0  0  0  0
   15.0830   10.6853   13.6109 N   0  0  0  0  0  0  0  0  0  0  0  0
   14.8935   11.9802   13.2529 C   0  0  0  0  0  0  0  0  0  0  0  0
   15.0887   13.0649   14.3294 C   0  0  1  0  0  0  0  0  0  0  0  0
   15.4220   14.5262   13.8947 C   0  0  0  0  0  0  0  0  0  0  0  0
   13.8442   13.1390   15.1650 C   0  0  0  0  0  0  0  0  0  0  0  0
   14.2843   13.6853   16.4898 C   0  0  0  0  0  0  0  0  0  0  0  0
   15.5920   13.1537   16.6919 O   0  0  0  0  0  0  0  0  0  0  0  0
   16.0771   12.6293   15.4363 C   0  0  0  0  0  0  0  0  0  0  0  0
  1  2  1  0
  2  3  2  0
  3  4  1  0
  4  5  2  0
  5  6  1  0
  6  7  2  0
  7  8  1  0
  8  9  2  0
  9 10  1  0
 10 11  2  0
 11 12  1  0
 12 13  1  6
 12 14  1  0
 14 15  1  0
 15 16  1  0
 16 17  1  0
 11  2  1  0
 17 12  1  0
  9  4  1  0
M  END
>  <HIPPO ID>  (168) 
65257

>  <ref_url>  (168) 
None

>  <ref_pdb>  (168) 
c0300a

>  <inchikey>  (168) 
RLIYILQTMXITGN-AWEZNQCLSA-N

>  <original SMILES>  (168) 
Cc1nc2ccccc2nc1[C@@]1(C)CCOC1

>  <generation_date>  (168) 
None

>  <tags>  (168) 
[]

>  <ref_mols>  (168) 
c0839a,c1299a

>  <alias>  (168) 
None

>  <original ID>  (168) 
RLIYILQTMXITGN-AWEZNQCLSA-N

>  <exports>  (168) 
['/opt/xchem-fragalysis-2/maxwin/CHIKV_HIPPO/hippo_prod/CHIKV_prod11c_recipes/Recipe_1GJWBFH_poses.sdf', '/opt/xchem-fragalysis-2/maxwin/CHIKV_HIPPO/hippo_prod/CHIKV_prod11c_recipes/Recipe_1GJXK8G_poses.sdf', '/opt/xchem-fragalysis-2/maxwin/CHIKV_HIPPO/hippo_prod/CHIKV_prod11c_recipes/Recipe_1GJXW46_poses.sdf']

>  <method>  (168) 
None

>  <submitter_email>  (168) 
None

>  <submitter_name>  (168) 
None

$$$$
ZITZMIQCCMKTFK-UHFFFAOYSA-N
     RDKit          3D

 18 19  0  0  0  0  0  0  0  0999 V2000
   14.7205   14.3467   12.4470 C   0  0  0  0  0  0  0  0  0  0  0  0
   14.9193   13.7051   13.8021 C   0  0  0  0  0  0  0  0  0  0  0  0
   16.0836   14.4143   14.5172 C   0  0  0  0  0  0  0  0  0  0  0  0
   13.7018   13.9457   14.6678 C   0  0  0  0  0  0  0  0  0  0  0  0
   15.0271   12.1945   13.6205 C   0  0  0  0  0  0  0  0  0  0  0  0
   15.1374   11.3692   14.7243 C   0  0  0  0  0  0  0  0  0  0  0  0
   15.0874   10.0280   14.6437 N   0  0  0  0  0  0  0  0  0  0  0  0
   14.9617    9.5079   13.4207 C   0  0  0  0  0  0  0  0  0  0  0  0
   14.8750    8.1312   13.3082 C   0  0  0  0  0  0  0  0  0  0  0  0
   14.7028    7.5258   12.0705 C   0  0  0  0  0  0  0  0  0  0  0  0
   14.6526    8.3144   10.9184 C   0  0  0  0  0  0  0  0  0  0  0  0
   14.4013    7.6842    9.5873 C   0  0  0  0  0  0  0  0  0  0  0  0
   15.1494    8.2910    8.6415 F   0  0  0  0  0  0  0  0  0  0  0  0
   14.6769    6.3561    9.6221 F   0  0  0  0  0  0  0  0  0  0  0  0
   13.1135    7.7845    9.1853 F   0  0  0  0  0  0  0  0  0  0  0  0
   14.8001    9.7087   11.0203 C   0  0  0  0  0  0  0  0  0  0  0  0
   14.9099   10.3212   12.2630 C   0  0  0  0  0  0  0  0  0  0  0  0
   14.9516   11.6614   12.3631 N   0  0  0  0  0  0  0  0  0  0  0  0
  1  2  1  0
  2  3  1  0
  2  4  1  0
  2  5  1  0
  5  6  2  0
  6  7  1  0
  7  8  2  0
  8  9  1  0
  9 10  2  0
 10 11  1  0
 11 12  1  0
 12 13  1  0
 12 14  1  0
 12 15  1  0
 11 16  2  0
 16 17  1  0
 17 18  2  0
 18  5  1  0
 17  8  1  0
M  END
>  <HIPPO ID>  (169) 
65323

>  <ref_url>  (169) 
None

>  <ref_pdb>  (169) 
c0300a

>  <inchikey>  (169) 
ZITZMIQCCMKTFK-UHFFFAOYSA-N

>  <original SMILES>  (169) 
CC(C)(C)c1cnc2ccc(C(F)(F)F)cc2n1

>  <generation_date>  (169) 
None

>  <tags>  (169) 
[]

>  <ref_mols>  (169) 
c0839a,c1299a

>  <alias>  (169) 
None

>  <original ID>  (169) 
ZITZMIQCCMKTFK-UHFFFAOYSA-N

>  <exports>  (169) 
['/opt/xchem-fragalysis-2/maxwin/CHIKV_HIPPO/hippo_prod/CHIKV_prod11c_recipes/Recipe_1GJWBFH_poses.sdf', '/opt/xchem-fragalysis-2/maxwin/CHIKV_HIPPO/hippo_prod/CHIKV_prod11c_recipes/Recipe_1GJXK8G_poses.sdf', '/opt/xchem-fragalysis-2/maxwin/CHIKV_HIPPO/hippo_prod/CHIKV_prod11c_recipes/Recipe_1GJXW46_poses.sdf']

>  <method>  (169) 
None

>  <submitter_email>  (169) 
None

>  <submitter_name>  (169) 
None

$$$$
VAXCHSXAGHERHH-UHFFFAOYSA-N
     RDKit          3D

 18 19  0  0  0  0  0  0  0  0999 V2000
   13.6616   13.5392   11.8849 C   0  0  0  0  0  0  0  0  0  0  0  0
   14.5752   13.4848   13.1101 C   0  0  0  0  0  0  0  0  0  0  0  0
   13.9904   13.8329   14.4879 C   0  0  0  0  0  0  0  0  0  0  0  0
   15.5380   14.6625   12.9350 C   0  0  0  0  0  0  0  0  0  0  0  0
   14.9462   12.0063   13.0953 C   0  0  0  0  0  0  0  0  0  0  0  0
   14.9742   11.2048   14.2202 C   0  0  0  0  0  0  0  0  0  0  0  0
   14.9700    9.8585   14.1578 N   0  0  0  0  0  0  0  0  0  0  0  0
   14.9272    9.3134   12.9358 C   0  0  0  0  0  0  0  0  0  0  0  0
   14.8833    7.9401   12.8200 C   0  0  0  0  0  0  0  0  0  0  0  0
   14.8447    7.3155   11.5644 C   0  0  0  0  0  0  0  0  0  0  0  0
   14.9789    5.8218   11.5033 C   0  0  0  0  0  0  0  0  0  0  0  0
   14.4676    5.2094   12.6020 F   0  0  0  0  0  0  0  0  0  0  0  0
   14.3894    5.2641   10.4221 F   0  0  0  0  0  0  0  0  0  0  0  0
   16.2988    5.4667   11.4460 F   0  0  0  0  0  0  0  0  0  0  0  0
   14.8112    8.0980   10.4054 C   0  0  0  0  0  0  0  0  0  0  0  0
   14.8876    9.4847   10.5113 C   0  0  0  0  0  0  0  0  0  0  0  0
   14.9553   10.0963   11.7646 C   0  0  0  0  0  0  0  0  0  0  0  0
   15.0532   11.4243   11.8630 N   0  0  0  0  0  0  0  0  0  0  0  0
  1  2  1  0
  2  3  1  0
  2  4  1  0
  2  5  1  0
  5  6  2  0
  6  7  1  0
  7  8  2  0
  8  9  1  0
  9 10  2  0
 10 11  1  0
 11 12  1  0
 11 13  1  0
 11 14  1  0
 10 15  1  0
 15 16  2  0
 16 17  1  0
 17 18  2  0
 18  5  1  0
 17  8  1  0
M  END
>  <HIPPO ID>  (170) 
65368

>  <ref_url>  (170) 
None

>  <ref_pdb>  (170) 
c0300a

>  <inchikey>  (170) 
VAXCHSXAGHERHH-UHFFFAOYSA-N

>  <original SMILES>  (170) 
CC(C)(C)c1cnc2cc(C(F)(F)F)ccc2n1

>  <generation_date>  (170) 
None

>  <tags>  (170) 
[]

>  <ref_mols>  (170) 
c0839a,c1299a

>  <alias>  (170) 
None

>  <original ID>  (170) 
VAXCHSXAGHERHH-UHFFFAOYSA-N

>  <exports>  (170) 
['/opt/xchem-fragalysis-2/maxwin/CHIKV_HIPPO/hippo_prod/CHIKV_prod11c_recipes/Recipe_1GJWBFH_poses.sdf', '/opt/xchem-fragalysis-2/maxwin/CHIKV_HIPPO/hippo_prod/CHIKV_prod11c_recipes/Recipe_1GJXK8G_poses.sdf', '/opt/xchem-fragalysis-2/maxwin/CHIKV_HIPPO/hippo_prod/CHIKV_prod11c_recipes/Recipe_1GJXW46_poses.sdf']

>  <method>  (170) 
None

>  <submitter_email>  (170) 
None

>  <submitter_name>  (170) 
None

$$$$
DULFQHLZJMRIIY-ITWVYHRLSA-N
     RDKit          3D

 18 21  0  0  0  0  0  0  0  0999 V2000
   14.5733    6.3739    9.8326 F   0  0  0  0  0  0  0  0  0  0  0  0
   14.5305    7.7278    9.6852 C   0  0  0  0  0  0  0  0  0  0  0  0
   13.3768    8.0041    9.0321 F   0  0  0  0  0  0  0  0  0  0  0  0
   15.5422    8.1051    8.8818 F   0  0  0  0  0  0  0  0  0  0  0  0
   14.6870    8.4440   10.9901 C   0  0  0  0  0  0  0  0  0  0  0  0
   14.7908    7.7078   12.1704 C   0  0  0  0  0  0  0  0  0  0  0  0
   14.9574    8.3789   13.3696 C   0  0  0  0  0  0  0  0  0  0  0  0
   14.9673    9.7619   13.4166 C   0  0  0  0  0  0  0  0  0  0  0  0
   15.0899   10.3031   14.6186 N   0  0  0  0  0  0  0  0  0  0  0  0
   15.0042   11.6441   14.6817 C   0  0  0  0  0  0  0  0  0  0  0  0
   14.7645   12.4858   13.6006 C   0  0  0  0  0  0  0  0  0  0  0  0
   14.4791   13.9547   13.7807 C   0  0  1  0  0  0  0  0  0  0  0  0
   15.7733   14.7525   13.8671 C   0  0  0  0  0  0  0  0  0  0  0  0
   14.5958   15.3312   14.4502 C   0  0  2  0  0  0  0  0  0  0  0  0
   14.0645   14.2551   15.2479 C   0  0  0  0  0  0  0  0  0  0  0  0
   14.7454   11.9103   12.3483 N   0  0  0  0  0  0  0  0  0  0  0  0
   14.8350   10.5497   12.2506 C   0  0  0  0  0  0  0  0  0  0  0  0
   14.7676    9.8589   11.0342 C   0  0  0  0  0  0  0  0  0  0  0  0
  1  2  1  0
  2  3  1  0
  2  4  1  0
  2  5  1  0
  5  6  2  0
  6  7  1  0
  7  8  2  0
  8  9  1  0
  9 10  2  0
 10 11  1  0
 12 11  1  1
 12 13  1  0
 14 13  1  1
 14 15  1  0
 11 16  2  0
 16 17  1  0
 17 18  2  0
 18  5  1  0
 17  8  1  0
 14 12  1  0
 15 12  1  0
M  END
>  <HIPPO ID>  (171) 
65370

>  <ref_url>  (171) 
None

>  <ref_pdb>  (171) 
c0300a

>  <inchikey>  (171) 
DULFQHLZJMRIIY-ITWVYHRLSA-N

>  <original SMILES>  (171) 
FC(F)(F)c1ccc2ncc([C@]34C[C@@H]3C4)nc2c1

>  <generation_date>  (171) 
None

>  <tags>  (171) 
[]

>  <ref_mols>  (171) 
c0839a,c1299a

>  <alias>  (171) 
None

>  <original ID>  (171) 
DULFQHLZJMRIIY-ITWVYHRLSA-N

>  <exports>  (171) 
['/opt/xchem-fragalysis-2/maxwin/CHIKV_HIPPO/hippo_prod/CHIKV_prod11c_recipes/Recipe_1GJWBFH_poses.sdf', '/opt/xchem-fragalysis-2/maxwin/CHIKV_HIPPO/hippo_prod/CHIKV_prod11c_recipes/Recipe_1GJXK8G_poses.sdf', '/opt/xchem-fragalysis-2/maxwin/CHIKV_HIPPO/hippo_prod/CHIKV_prod11c_recipes/Recipe_1GJXW46_poses.sdf']

>  <method>  (171) 
None

>  <submitter_email>  (171) 
None

>  <submitter_name>  (171) 
None

$$$$
CSEPTYUGKSZCPY-ITWVYHRLSA-N
     RDKit          3D

 18 21  0  0  0  0  0  0  0  0999 V2000
   14.8793    5.5805   10.2342 F   0  0  0  0  0  0  0  0  0  0  0  0
   14.8390    6.0987   11.4816 C   0  0  0  0  0  0  0  0  0  0  0  0
   15.9564    5.6287   12.1118 F   0  0  0  0  0  0  0  0  0  0  0  0
   13.7825    5.5299   12.1166 F   0  0  0  0  0  0  0  0  0  0  0  0
   14.7971    7.6013   11.5395 C   0  0  0  0  0  0  0  0  0  0  0  0
   14.8451    8.4391   10.4204 C   0  0  0  0  0  0  0  0  0  0  0  0
   14.8908    9.8351   10.5974 C   0  0  0  0  0  0  0  0  0  0  0  0
   14.8497   10.4216   11.8757 C   0  0  0  0  0  0  0  0  0  0  0  0
   14.9073   11.7638   12.0776 N   0  0  0  0  0  0  0  0  0  0  0  0
   14.8366   12.2293   13.3687 C   0  0  0  0  0  0  0  0  0  0  0  0
   15.2531   13.6115   13.6906 C   0  0  1  0  0  0  0  0  0  0  0  0
   15.7837   14.1757   14.9617 C   0  0  0  0  0  0  0  0  0  0  0  0
   14.4343   14.5911   14.4785 C   0  0  1  0  0  0  0  0  0  0  0  0
   14.8680   14.8799   13.0712 C   0  0  0  0  0  0  0  0  0  0  0  0
   14.6587   11.3251   14.4016 C   0  0  0  0  0  0  0  0  0  0  0  0
   14.6200    9.9927   14.2388 N   0  0  0  0  0  0  0  0  0  0  0  0
   14.7554    9.5528   12.9883 C   0  0  0  0  0  0  0  0  0  0  0  0
   14.7558    8.1841   12.8125 C   0  0  0  0  0  0  0  0  0  0  0  0
  1  2  1  0
  2  3  1  0
  2  4  1  0
  2  5  1  0
  5  6  2  0
  6  7  1  0
  7  8  2  0
  8  9  1  0
  9 10  2  0
 11 10  1  6
 11 12  1  0
 13 12  1  1
 13 14  1  0
 10 15  1  0
 15 16  2  0
 16 17  1  0
 17 18  2  0
 18  5  1  0
 17  8  1  0
 13 11  1  0
 14 11  1  0
M  END
>  <HIPPO ID>  (172) 
65400

>  <ref_url>  (172) 
None

>  <ref_pdb>  (172) 
c0300a

>  <inchikey>  (172) 
CSEPTYUGKSZCPY-ITWVYHRLSA-N

>  <original SMILES>  (172) 
FC(F)(F)c1ccc2nc([C@]34C[C@H]3C4)cnc2c1

>  <generation_date>  (172) 
None

>  <tags>  (172) 
[]

>  <ref_mols>  (172) 
c0839a,c1299a

>  <alias>  (172) 
None

>  <original ID>  (172) 
CSEPTYUGKSZCPY-ITWVYHRLSA-N

>  <exports>  (172) 
['/opt/xchem-fragalysis-2/maxwin/CHIKV_HIPPO/hippo_prod/CHIKV_prod11c_recipes/Recipe_1GJWBFH_poses.sdf', '/opt/xchem-fragalysis-2/maxwin/CHIKV_HIPPO/hippo_prod/CHIKV_prod11c_recipes/Recipe_1GJXK8G_poses.sdf', '/opt/xchem-fragalysis-2/maxwin/CHIKV_HIPPO/hippo_prod/CHIKV_prod11c_recipes/Recipe_1GJXW46_poses.sdf']

>  <method>  (172) 
None

>  <submitter_email>  (172) 
None

>  <submitter_name>  (172) 
None

$$$$
FMROQCOMGPBJGO-UHFFFAOYSA-N
     RDKit          3D

 19 22  0  0  0  0  0  0  0  0999 V2000
   14.7986    8.8232   11.5448 C   0  0  0  0  0  0  0  0  0  0  0  0
   14.7956    9.7392   10.5047 C   0  0  0  0  0  0  0  0  0  0  0  0
   14.7501   11.1097   10.8143 C   0  0  0  0  0  0  0  0  0  0  0  0
   14.7569   11.6200   12.1127 C   0  0  0  0  0  0  0  0  0  0  0  0
   14.9220   12.9712   12.3675 N   0  0  0  0  0  0  0  0  0  0  0  0
   15.0641   13.3811   13.6704 C   0  0  0  0  0  0  0  0  0  0  0  0
   15.5236   14.8861   14.0870 C   0  0  0  0  0  0  0  0  0  0  0  0
   15.8586   14.8884   15.5767 C   0  0  0  0  0  0  0  0  0  0  0  0
   17.0689   14.1387   16.0892 C   0  0  0  0  0  0  0  0  0  0  0  0
   17.0028   15.6309   16.2218 C   0  0  0  0  0  0  0  0  0  0  0  0
   16.6604   15.5876   13.2665 C   0  0  0  0  0  0  0  0  0  0  0  0
   16.6607   17.1222   13.2291 C   0  0  0  0  0  0  0  0  0  0  0  0
   15.3765   17.6466   12.9115 O   0  0  0  0  0  0  0  0  0  0  0  0
   14.4587   17.2588   13.9152 C   0  0  0  0  0  0  0  0  0  0  0  0
   14.3142   15.7597   13.8728 C   0  0  0  0  0  0  0  0  0  0  0  0
   14.8739   12.4076   14.6518 C   0  0  0  0  0  0  0  0  0  0  0  0
   14.7305   11.0719   14.4223 N   0  0  0  0  0  0  0  0  0  0  0  0
   14.7442   10.6711   13.1500 C   0  0  0  0  0  0  0  0  0  0  0  0
   14.7866    9.3022   12.8619 C   0  0  0  0  0  0  0  0  0  0  0  0
  1  2  2  0
  2  3  1  0
  3  4  2  0
  4  5  1  0
  5  6  2  0
  6  7  1  0
  7  8  1  0
  8  9  1  0
  9 10  1  0
  7 11  1  0
 11 12  1  0
 12 13  1  0
 13 14  1  0
 14 15  1  0
  6 16  1  0
 16 17  2  0
 17 18  1  0
 18 19  2  0
 19  1  1  0
 18  4  1  0
 15  7  1  0
 10  8  1  0
M  END
>  <HIPPO ID>  (173) 
65811

>  <ref_url>  (173) 
None

>  <ref_pdb>  (173) 
c0300a

>  <inchikey>  (173) 
FMROQCOMGPBJGO-UHFFFAOYSA-N

>  <original SMILES>  (173) 
c1ccc2nc(C3(C4CC4)CCOCC3)cnc2c1

>  <generation_date>  (173) 
None

>  <tags>  (173) 
[]

>  <ref_mols>  (173) 
c0839a,c1299a

>  <alias>  (173) 
None

>  <original ID>  (173) 
FMROQCOMGPBJGO-UHFFFAOYSA-N

>  <exports>  (173) 
['/opt/xchem-fragalysis-2/maxwin/CHIKV_HIPPO/hippo_prod/CHIKV_prod11c_recipes/Recipe_1GJWBFH_poses.sdf', '/opt/xchem-fragalysis-2/maxwin/CHIKV_HIPPO/hippo_prod/CHIKV_prod11c_recipes/Recipe_1GJXK8G_poses.sdf', '/opt/xchem-fragalysis-2/maxwin/CHIKV_HIPPO/hippo_prod/CHIKV_prod11c_recipes/Recipe_1GJXW46_poses.sdf']

>  <method>  (173) 
None

>  <submitter_email>  (173) 
None

>  <submitter_name>  (173) 
None

$$$$
RWYUVIMPTJPWPO-UHFFFAOYSA-N
     RDKit          3D

 20 23  0  0  0  0  0  0  0  0999 V2000
   14.4741   13.7665   12.1032 C   0  0  0  0  0  0  0  0  0  0  0  0
   14.6402   12.4244   12.6488 C   0  0  0  0  0  0  0  0  0  0  0  0
   14.6672   11.4964   11.6476 N   0  0  0  0  0  0  0  0  0  0  0  0
   14.8238   10.2241   11.9827 C   0  0  0  0  0  0  0  0  0  0  0  0
   14.7883    9.2488   10.9772 C   0  0  0  0  0  0  0  0  0  0  0  0
   14.8158    7.8938   11.2975 C   0  0  0  0  0  0  0  0  0  0  0  0
   14.9395    7.5296   12.6344 C   0  0  0  0  0  0  0  0  0  0  0  0
   15.0306    8.5179   13.6330 C   0  0  0  0  0  0  0  0  0  0  0  0
   14.9675    9.8798   13.3405 C   0  0  0  0  0  0  0  0  0  0  0  0
   15.0349   10.8360   14.3213 N   0  0  0  0  0  0  0  0  0  0  0  0
   14.9091   12.1536   13.9837 C   0  0  0  0  0  0  0  0  0  0  0  0
   15.0768   13.2780   15.0915 C   0  0  0  0  0  0  0  0  0  0  0  0
   16.3207   14.1715   14.8311 C   0  0  0  0  0  0  0  0  0  0  0  0
   16.3827   15.4701   14.0076 C   0  0  0  0  0  0  0  0  0  0  0  0
   16.5231   15.5295   15.4882 C   0  0  0  0  0  0  0  0  0  0  0  0
   15.3381   12.5732   16.4484 C   0  0  0  0  0  0  0  0  0  0  0  0
   15.2796   13.5166   17.6485 C   0  0  0  0  0  0  0  0  0  0  0  0
   14.3806   14.6117   17.5006 O   0  0  0  0  0  0  0  0  0  0  0  0
   13.2925   14.3238   16.6447 C   0  0  0  0  0  0  0  0  0  0  0  0
   13.7892   14.1166   15.2251 C   0  0  0  0  0  0  0  0  0  0  0  0
  1  2  1  0
  2  3  2  0
  3  4  1  0
  4  5  2  0
  5  6  1  0
  6  7  2  0
  7  8  1  0
  8  9  2  0
  9 10  1  0
 10 11  2  0
 11 12  1  0
 12 13  1  0
 13 14  1  0
 14 15  1  0
 12 16  1  0
 16 17  1  0
 17 18  1  0
 18 19  1  0
 19 20  1  0
 11  2  1  0
 20 12  1  0
  9  4  1  0
 15 13  1  0
M  END
>  <HIPPO ID>  (174) 
66167

>  <ref_url>  (174) 
None

>  <ref_pdb>  (174) 
c0300a

>  <inchikey>  (174) 
RWYUVIMPTJPWPO-UHFFFAOYSA-N

>  <original SMILES>  (174) 
Cc1nc2ccccc2nc1C1(C2CC2)CCOCC1

>  <generation_date>  (174) 
None

>  <tags>  (174) 
[]

>  <ref_mols>  (174) 
c0839a,c1299a

>  <alias>  (174) 
None

>  <original ID>  (174) 
RWYUVIMPTJPWPO-UHFFFAOYSA-N

>  <exports>  (174) 
['/opt/xchem-fragalysis-2/maxwin/CHIKV_HIPPO/hippo_prod/CHIKV_prod11c_recipes/Recipe_1GJWBFH_poses.sdf', '/opt/xchem-fragalysis-2/maxwin/CHIKV_HIPPO/hippo_prod/CHIKV_prod11c_recipes/Recipe_1GJXK8G_poses.sdf', '/opt/xchem-fragalysis-2/maxwin/CHIKV_HIPPO/hippo_prod/CHIKV_prod11c_recipes/Recipe_1GJXW46_poses.sdf']

>  <method>  (174) 
None

>  <submitter_email>  (174) 
None

>  <submitter_name>  (174) 
None

$$$$
XPJCJAAYZAWODY-CYBMUJFWSA-N
     RDKit          3D

 20 22  0  0  0  0  0  0  0  0999 V2000
   16.4671   13.8864   14.8957 C   0  0  0  0  0  0  0  0  0  0  0  0
   15.1428   13.7796   14.0898 C   0  0  1  0  0  0  0  0  0  0  0  0
   14.8536   12.3383   13.6769 C   0  0  0  0  0  0  0  0  0  0  0  0
   14.7303   11.4007   14.6815 C   0  0  0  0  0  0  0  0  0  0  0  0
   14.6893   10.0779   14.4534 N   0  0  0  0  0  0  0  0  0  0  0  0
   14.7768    9.6823   13.1806 C   0  0  0  0  0  0  0  0  0  0  0  0
   14.7712    8.3174   12.9506 C   0  0  0  0  0  0  0  0  0  0  0  0
   14.7942    7.7751   11.6567 C   0  0  0  0  0  0  0  0  0  0  0  0
   14.8322    6.2732   11.5393 C   0  0  0  0  0  0  0  0  0  0  0  0
   13.7882    5.6795   12.1725 F   0  0  0  0  0  0  0  0  0  0  0  0
   15.9618    5.7742   12.1235 F   0  0  0  0  0  0  0  0  0  0  0  0
   14.8421    5.8069   10.2709 F   0  0  0  0  0  0  0  0  0  0  0  0
   14.8355    8.6544   10.5692 C   0  0  0  0  0  0  0  0  0  0  0  0
   14.8797   10.0463   10.8026 C   0  0  0  0  0  0  0  0  0  0  0  0
   14.8513   10.5936   12.1026 C   0  0  0  0  0  0  0  0  0  0  0  0
   14.9145   11.9343   12.3618 N   0  0  0  0  0  0  0  0  0  0  0  0
   14.1115   14.4389   14.9936 C   0  0  0  0  0  0  0  0  0  0  0  0
   14.3439   15.9225   14.7331 C   0  0  0  0  0  0  0  0  0  0  0  0
   14.8599   16.0519   13.4023 O   0  0  0  0  0  0  0  0  0  0  0  0
   15.0971   14.7302   12.9019 C   0  0  0  0  0  0  0  0  0  0  0  0
  2  1  1  1
  2  3  1  0
  3  4  2  0
  4  5  1  0
  5  6  2  0
  6  7  1  0
  7  8  2  0
  8  9  1  0
  9 10  1  0
  9 11  1  0
  9 12  1  0
  8 13  1  0
 13 14  2  0
 14 15  1  0
 15 16  2  0
  2 17  1  0
 17 18  1  0
 18 19  1  0
 19 20  1  0
 20  2  1  0
 16  3  1  0
 15  6  1  0
M  END
>  <HIPPO ID>  (175) 
66267

>  <ref_url>  (175) 
None

>  <ref_pdb>  (175) 
c0300a

>  <inchikey>  (175) 
XPJCJAAYZAWODY-CYBMUJFWSA-N

>  <original SMILES>  (175) 
C[C@@]1(c2cnc3cc(C(F)(F)F)ccc3n2)CCOC1

>  <generation_date>  (175) 
None

>  <tags>  (175) 
[]

>  <ref_mols>  (175) 
c0839a,c1299a

>  <alias>  (175) 
None

>  <original ID>  (175) 
XPJCJAAYZAWODY-CYBMUJFWSA-N

>  <exports>  (175) 
['/opt/xchem-fragalysis-2/maxwin/CHIKV_HIPPO/hippo_prod/CHIKV_prod11c_recipes/Recipe_1GJWBFH_poses.sdf', '/opt/xchem-fragalysis-2/maxwin/CHIKV_HIPPO/hippo_prod/CHIKV_prod11c_recipes/Recipe_1GJXK8G_poses.sdf', '/opt/xchem-fragalysis-2/maxwin/CHIKV_HIPPO/hippo_prod/CHIKV_prod11c_recipes/Recipe_1GJXW46_poses.sdf']

>  <method>  (175) 
None

>  <submitter_email>  (175) 
None

>  <submitter_name>  (175) 
None

$$$$
XPJCJAAYZAWODY-ZDUSSCGKSA-N
     RDKit          3D

 20 22  0  0  0  0  0  0  0  0999 V2000
   14.8820   14.5742   12.5333 C   0  0  0  0  0  0  0  0  0  0  0  0
   14.9527   13.8567   13.8555 C   0  0  2  0  0  0  0  0  0  0  0  0
   14.8623   12.3507   13.5672 C   0  0  0  0  0  0  0  0  0  0  0  0
   14.8450   11.4398   14.6003 C   0  0  0  0  0  0  0  0  0  0  0  0
   14.8185   10.1055   14.4080 N   0  0  0  0  0  0  0  0  0  0  0  0
   14.8373    9.6671   13.1435 C   0  0  0  0  0  0  0  0  0  0  0  0
   14.8400    8.2960   12.9329 C   0  0  0  0  0  0  0  0  0  0  0  0
   14.8381    7.7364   11.6440 C   0  0  0  0  0  0  0  0  0  0  0  0
   14.9528    6.2394   11.5044 C   0  0  0  0  0  0  0  0  0  0  0  0
   16.2626    5.8509   11.4376 F   0  0  0  0  0  0  0  0  0  0  0  0
   14.3552    5.7465   10.3955 F   0  0  0  0  0  0  0  0  0  0  0  0
   14.4219    5.5759   12.5659 F   0  0  0  0  0  0  0  0  0  0  0  0
   14.8391    8.6001   10.5421 C   0  0  0  0  0  0  0  0  0  0  0  0
   14.8617    9.9914   10.7525 C   0  0  0  0  0  0  0  0  0  0  0  0
   14.8537   10.5506   12.0444 C   0  0  0  0  0  0  0  0  0  0  0  0
   14.8776   11.8912   12.2658 N   0  0  0  0  0  0  0  0  0  0  0  0
   13.8746   14.4054   14.7771 C   0  0  0  0  0  0  0  0  0  0  0  0
   14.5132   14.5682   16.1071 C   0  0  0  0  0  0  0  0  0  0  0  0
   15.8058   15.0363   15.7710 O   0  0  0  0  0  0  0  0  0  0  0  0
   16.2123   14.3333   14.6050 C   0  0  0  0  0  0  0  0  0  0  0  0
  2  1  1  6
  2  3  1  0
  3  4  2  0
  4  5  1  0
  5  6  2  0
  6  7  1  0
  7  8  2  0
  8  9  1  0
  9 10  1  0
  9 11  1  0
  9 12  1  0
  8 13  1  0
 13 14  2  0
 14 15  1  0
 15 16  2  0
  2 17  1  0
 17 18  1  0
 18 19  1  0
 19 20  1  0
 20  2  1  0
 16  3  1  0
 15  6  1  0
M  END
>  <HIPPO ID>  (176) 
66268

>  <ref_url>  (176) 
None

>  <ref_pdb>  (176) 
c0300a

>  <inchikey>  (176) 
XPJCJAAYZAWODY-ZDUSSCGKSA-N

>  <original SMILES>  (176) 
C[C@]1(c2cnc3cc(C(F)(F)F)ccc3n2)CCOC1

>  <generation_date>  (176) 
None

>  <tags>  (176) 
[]

>  <ref_mols>  (176) 
c0839a,c1299a

>  <alias>  (176) 
None

>  <original ID>  (176) 
XPJCJAAYZAWODY-ZDUSSCGKSA-N

>  <exports>  (176) 
['/opt/xchem-fragalysis-2/maxwin/CHIKV_HIPPO/hippo_prod/CHIKV_prod11c_recipes/Recipe_1GJWBFH_poses.sdf', '/opt/xchem-fragalysis-2/maxwin/CHIKV_HIPPO/hippo_prod/CHIKV_prod11c_recipes/Recipe_1GJXK8G_poses.sdf', '/opt/xchem-fragalysis-2/maxwin/CHIKV_HIPPO/hippo_prod/CHIKV_prod11c_recipes/Recipe_1GJXW46_poses.sdf']

>  <method>  (176) 
None

>  <submitter_email>  (176) 
None

>  <submitter_name>  (176) 
None

$$$$
XRRICGSYEBZILY-UHFFFAOYSA-N
     RDKit          3D

 20 22  0  0  0  0  0  0  0  0999 V2000
   17.3413   15.4826   14.0567 O   0  0  0  0  0  0  0  0  0  0  0  0
   16.1035   16.0238   13.6156 C   0  0  0  0  0  0  0  0  0  0  0  0
   15.2518   14.9015   13.0162 C   0  0  0  0  0  0  0  0  0  0  0  0
   14.8304   13.8429   14.0074 C   0  0  0  0  0  0  0  0  0  0  0  0
   14.7152   12.3641   13.5023 C   0  0  0  0  0  0  0  0  0  0  0  0
   14.6127   11.3577   14.4596 C   0  0  0  0  0  0  0  0  0  0  0  0
   14.6491   10.0372   14.2263 N   0  0  0  0  0  0  0  0  0  0  0  0
   14.7773    9.6820   12.9612 C   0  0  0  0  0  0  0  0  0  0  0  0
   14.8070    8.3193   12.7418 C   0  0  0  0  0  0  0  0  0  0  0  0
   14.8418    7.7793   11.4549 C   0  0  0  0  0  0  0  0  0  0  0  0
   14.9460    6.2804   11.3342 C   0  0  0  0  0  0  0  0  0  0  0  0
   16.2528    5.8755   11.3358 F   0  0  0  0  0  0  0  0  0  0  0  0
   14.3640    5.6336   12.3816 F   0  0  0  0  0  0  0  0  0  0  0  0
   14.3905    5.7763   10.2104 F   0  0  0  0  0  0  0  0  0  0  0  0
   14.8733    8.6682   10.3732 C   0  0  0  0  0  0  0  0  0  0  0  0
   14.8819   10.0653   10.6061 C   0  0  0  0  0  0  0  0  0  0  0  0
   14.8264   10.6197   11.9029 C   0  0  0  0  0  0  0  0  0  0  0  0
   14.8151   11.9704   12.1838 N   0  0  0  0  0  0  0  0  0  0  0  0
   13.8590   14.3295   15.0711 C   0  0  0  0  0  0  0  0  0  0  0  0
   15.2583   14.0547   15.4750 C   0  0  0  0  0  0  0  0  0  0  0  0
  1  2  1  0
  2  3  1  0
  3  4  1  0
  4  5  1  0
  5  6  2  0
  6  7  1  0
  7  8  2  0
  8  9  1  0
  9 10  2  0
 10 11  1  0
 11 12  1  0
 11 13  1  0
 11 14  1  0
 10 15  1  0
 15 16  2  0
 16 17  1  0
 17 18  2  0
  4 19  1  0
 19 20  1  0
 20  4  1  0
 18  5  1  0
 17  8  1  0
M  END
>  <HIPPO ID>  (177) 
66269

>  <ref_url>  (177) 
None

>  <ref_pdb>  (177) 
c0300a

>  <inchikey>  (177) 
XRRICGSYEBZILY-UHFFFAOYSA-N

>  <original SMILES>  (177) 
OCCC1(c2cnc3cc(C(F)(F)F)ccc3n2)CC1

>  <generation_date>  (177) 
None

>  <tags>  (177) 
[]

>  <ref_mols>  (177) 
c0839a,c1299a

>  <alias>  (177) 
None

>  <original ID>  (177) 
XRRICGSYEBZILY-UHFFFAOYSA-N

>  <exports>  (177) 
['/opt/xchem-fragalysis-2/maxwin/CHIKV_HIPPO/hippo_prod/CHIKV_prod11c_recipes/Recipe_1GJWBFH_poses.sdf', '/opt/xchem-fragalysis-2/maxwin/CHIKV_HIPPO/hippo_prod/CHIKV_prod11c_recipes/Recipe_1GJXK8G_poses.sdf', '/opt/xchem-fragalysis-2/maxwin/CHIKV_HIPPO/hippo_prod/CHIKV_prod11c_recipes/Recipe_1GJXW46_poses.sdf']

>  <method>  (177) 
None

>  <submitter_email>  (177) 
None

>  <submitter_name>  (177) 
None

$$$$
UKNCSKXDMGDGGR-CYBMUJFWSA-N
     RDKit          3D

 20 22  0  0  0  0  0  0  0  0999 V2000
   14.1318   13.8826   12.1932 C   0  0  0  0  0  0  0  0  0  0  0  0
   14.7683   13.7080   13.5646 C   0  0  1  0  0  0  0  0  0  0  0  0
   15.0432   12.2092   13.5900 C   0  0  0  0  0  0  0  0  0  0  0  0
   15.1100   11.4481   14.7338 C   0  0  0  0  0  0  0  0  0  0  0  0
   15.0703   10.0928   14.7141 N   0  0  0  0  0  0  0  0  0  0  0  0
   14.9676    9.4892   13.5161 C   0  0  0  0  0  0  0  0  0  0  0  0
   14.8523    8.1074   13.4288 C   0  0  0  0  0  0  0  0  0  0  0  0
   14.6812    7.4665   12.1988 C   0  0  0  0  0  0  0  0  0  0  0  0
   14.6520    8.2180   11.0215 C   0  0  0  0  0  0  0  0  0  0  0  0
   14.4000    7.5786    9.6903 C   0  0  0  0  0  0  0  0  0  0  0  0
   13.1042    7.6443    9.3032 F   0  0  0  0  0  0  0  0  0  0  0  0
   15.1189    8.2065    8.7328 F   0  0  0  0  0  0  0  0  0  0  0  0
   14.7129    6.2585    9.7105 F   0  0  0  0  0  0  0  0  0  0  0  0
   14.8304    9.6063   11.0989 C   0  0  0  0  0  0  0  0  0  0  0  0
   14.9603   10.2388   12.3298 C   0  0  0  0  0  0  0  0  0  0  0  0
   15.0568   11.5677   12.3763 N   0  0  0  0  0  0  0  0  0  0  0  0
   15.7961   14.8442   13.6810 C   0  0  0  0  0  0  0  0  0  0  0  0
   14.9956   16.0652   14.0906 C   0  0  0  0  0  0  0  0  0  0  0  0
   13.8630   15.5750   14.7851 O   0  0  0  0  0  0  0  0  0  0  0  0
   13.9083   14.1453   14.7479 C   0  0  0  0  0  0  0  0  0  0  0  0
  2  1  1  6
  2  3  1  0
  3  4  2  0
  4  5  1  0
  5  6  2  0
  6  7  1  0
  7  8  2  0
  8  9  1  0
  9 10  1  0
 10 11  1  0
 10 12  1  0
 10 13  1  0
  9 14  2  0
 14 15  1  0
 15 16  2  0
  2 17  1  0
 17 18  1  0
 18 19  1  0
 19 20  1  0
 20  2  1  0
 16  3  1  0
 15  6  1  0
M  END
>  <HIPPO ID>  (178) 
66274

>  <ref_url>  (178) 
None

>  <ref_pdb>  (178) 
c0300a

>  <inchikey>  (178) 
UKNCSKXDMGDGGR-CYBMUJFWSA-N

>  <original SMILES>  (178) 
C[C@@]1(c2cnc3ccc(C(F)(F)F)cc3n2)CCOC1

>  <generation_date>  (178) 
None

>  <tags>  (178) 
[]

>  <ref_mols>  (178) 
c0839a,c1299a

>  <alias>  (178) 
None

>  <original ID>  (178) 
UKNCSKXDMGDGGR-CYBMUJFWSA-N

>  <exports>  (178) 
['/opt/xchem-fragalysis-2/maxwin/CHIKV_HIPPO/hippo_prod/CHIKV_prod11c_recipes/Recipe_1GJWBFH_poses.sdf', '/opt/xchem-fragalysis-2/maxwin/CHIKV_HIPPO/hippo_prod/CHIKV_prod11c_recipes/Recipe_1GJXK8G_poses.sdf', '/opt/xchem-fragalysis-2/maxwin/CHIKV_HIPPO/hippo_prod/CHIKV_prod11c_recipes/Recipe_1GJXW46_poses.sdf']

>  <method>  (178) 
None

>  <submitter_email>  (178) 
None

>  <submitter_name>  (178) 
None

$$$$
UKNCSKXDMGDGGR-CYBMUJFWSA-N
     RDKit          3D

 20 22  0  0  0  0  0  0  0  0999 V2000
   14.2521   13.5673   15.3934 C   0  0  0  0  0  0  0  0  0  0  0  0
   14.6436   13.1301   13.9935 C   0  0  1  0  0  0  0  0  0  0  0  0
   15.3348   11.7605   13.8945 C   0  0  0  0  0  0  0  0  0  0  0  0
   15.3837   10.9175   14.9814 C   0  0  0  0  0  0  0  0  0  0  0  0
   15.2592    9.5765   14.8588 N   0  0  0  0  0  0  0  0  0  0  0  0
   15.0682    9.0830   13.6232 C   0  0  0  0  0  0  0  0  0  0  0  0
   14.8294    7.7302   13.4437 C   0  0  0  0  0  0  0  0  0  0  0  0
   14.5974    7.1968   12.1763 C   0  0  0  0  0  0  0  0  0  0  0  0
   14.6125    8.0290   11.0554 C   0  0  0  0  0  0  0  0  0  0  0  0
   14.3513    7.4844    9.6869 C   0  0  0  0  0  0  0  0  0  0  0  0
   14.6551    6.1632    9.6291 F   0  0  0  0  0  0  0  0  0  0  0  0
   15.0694    8.1655    8.7649 F   0  0  0  0  0  0  0  0  0  0  0  0
   13.0551    7.5830    9.3138 F   0  0  0  0  0  0  0  0  0  0  0  0
   14.8741    9.3926   11.2258 C   0  0  0  0  0  0  0  0  0  0  0  0
   15.1051    9.9154   12.4938 C   0  0  0  0  0  0  0  0  0  0  0  0
   15.3704   11.2160   12.6340 N   0  0  0  0  0  0  0  0  0  0  0  0
   13.4882   12.8584   13.0559 C   0  0  0  0  0  0  0  0  0  0  0  0
   13.9862   13.3148   11.6999 C   0  0  0  0  0  0  0  0  0  0  0  0
   15.2027   14.0459   11.9553 O   0  0  0  0  0  0  0  0  0  0  0  0
   15.2078   14.3661   13.3276 C   0  0  0  0  0  0  0  0  0  0  0  0
  2  1  1  1
  2  3  1  0
  3  4  2  0
  4  5  1  0
  5  6  2  0
  6  7  1  0
  7  8  2  0
  8  9  1  0
  9 10  1  0
 10 11  1  0
 10 12  1  0
 10 13  1  0
  9 14  2  0
 14 15  1  0
 15 16  2  0
  2 17  1  0
 17 18  1  0
 18 19  1  0
 19 20  1  0
 20  2  1  0
 16  3  1  0
 15  6  1  0
M  END
>  <HIPPO ID>  (179) 
66275

>  <ref_url>  (179) 
None

>  <ref_pdb>  (179) 
c0300a

>  <inchikey>  (179) 
UKNCSKXDMGDGGR-CYBMUJFWSA-N

>  <original SMILES>  (179) 
C[C@@]1(c2cnc3ccc(C(F)(F)F)cc3n2)CCOC1

>  <generation_date>  (179) 
None

>  <tags>  (179) 
[]

>  <ref_mols>  (179) 
c0839a,c1299a

>  <alias>  (179) 
None

>  <original ID>  (179) 
UKNCSKXDMGDGGR-CYBMUJFWSA-N

>  <exports>  (179) 
['/opt/xchem-fragalysis-2/maxwin/CHIKV_HIPPO/hippo_prod/CHIKV_prod11c_recipes/Recipe_1GJWBFH_poses.sdf', '/opt/xchem-fragalysis-2/maxwin/CHIKV_HIPPO/hippo_prod/CHIKV_prod11c_recipes/Recipe_1GJXK8G_poses.sdf', '/opt/xchem-fragalysis-2/maxwin/CHIKV_HIPPO/hippo_prod/CHIKV_prod11c_recipes/Recipe_1GJXW46_poses.sdf']

>  <method>  (179) 
None

>  <submitter_email>  (179) 
None

>  <submitter_name>  (179) 
None

$$$$
PKRDIOBQFMHZPM-UHFFFAOYSA-N
     RDKit          3D

 20 22  0  0  0  0  0  0  0  0999 V2000
   13.4904   13.4304   16.0935 O   0  0  0  0  0  0  0  0  0  0  0  0
   14.1707   14.5428   15.5504 C   0  0  0  0  0  0  0  0  0  0  0  0
   15.3030   14.0281   14.7015 C   0  0  0  0  0  0  0  0  0  0  0  0
   14.8870   13.1571   13.5382 C   0  0  0  0  0  0  0  0  0  0  0  0
   15.1470   11.6887   13.5870 C   0  0  0  0  0  0  0  0  0  0  0  0
   15.0576   10.9199   14.7331 C   0  0  0  0  0  0  0  0  0  0  0  0
   14.9515    9.5744   14.7067 N   0  0  0  0  0  0  0  0  0  0  0  0
   14.8771    9.0169   13.4917 C   0  0  0  0  0  0  0  0  0  0  0  0
   14.6628    7.6560   13.3545 C   0  0  0  0  0  0  0  0  0  0  0  0
   14.4815    7.0881   12.0961 C   0  0  0  0  0  0  0  0  0  0  0  0
   14.5317    7.9010   10.9645 C   0  0  0  0  0  0  0  0  0  0  0  0
   14.3680    7.3899    9.5835 C   0  0  0  0  0  0  0  0  0  0  0  0
   14.4191    6.0366    9.5431 F   0  0  0  0  0  0  0  0  0  0  0  0
   13.2187    7.7730    8.9826 F   0  0  0  0  0  0  0  0  0  0  0  0
   15.3703    7.9286    8.8570 F   0  0  0  0  0  0  0  0  0  0  0  0
   14.8099    9.2582   11.0853 C   0  0  0  0  0  0  0  0  0  0  0  0
   14.9734    9.8050   12.3267 C   0  0  0  0  0  0  0  0  0  0  0  0
   15.2026   11.1008   12.3670 N   0  0  0  0  0  0  0  0  0  0  0  0
   13.6069   13.2625   12.6936 C   0  0  0  0  0  0  0  0  0  0  0  0
   14.8249   13.9946   12.3156 C   0  0  0  0  0  0  0  0  0  0  0  0
  1  2  1  0
  2  3  1  0
  3  4  1  0
  4  5  1  0
  5  6  2  0
  6  7  1  0
  7  8  2  0
  8  9  1  0
  9 10  2  0
 10 11  1  0
 11 12  1  0
 12 13  1  0
 12 14  1  0
 12 15  1  0
 11 16  2  0
 16 17  1  0
 17 18  2  0
  4 19  1  0
 19 20  1  0
 20  4  1  0
 18  5  1  0
 17  8  1  0
M  END
>  <HIPPO ID>  (180) 
66300

>  <ref_url>  (180) 
None

>  <ref_pdb>  (180) 
c0300a

>  <inchikey>  (180) 
PKRDIOBQFMHZPM-UHFFFAOYSA-N

>  <original SMILES>  (180) 
OCCC1(c2cnc3ccc(C(F)(F)F)cc3n2)CC1

>  <generation_date>  (180) 
None

>  <tags>  (180) 
[]

>  <ref_mols>  (180) 
c0839a,c1299a

>  <alias>  (180) 
None

>  <original ID>  (180) 
PKRDIOBQFMHZPM-UHFFFAOYSA-N

>  <exports>  (180) 
['/opt/xchem-fragalysis-2/maxwin/CHIKV_HIPPO/hippo_prod/CHIKV_prod11c_recipes/Recipe_1GJWBFH_poses.sdf', '/opt/xchem-fragalysis-2/maxwin/CHIKV_HIPPO/hippo_prod/CHIKV_prod11c_recipes/Recipe_1GJXK8G_poses.sdf', '/opt/xchem-fragalysis-2/maxwin/CHIKV_HIPPO/hippo_prod/CHIKV_prod11c_recipes/Recipe_1GJXW46_poses.sdf']

>  <method>  (180) 
None

>  <submitter_email>  (180) 
None

>  <submitter_name>  (180) 
None

$$$$
OPLUMYKLNGIJGH-UHFFFAOYSA-N
     RDKit          3D

 23 26  0  0  0  0  0  0  0  0999 V2000
   15.2480    7.7393    9.1181 F   0  0  0  0  0  0  0  0  0  0  0  0
   14.4227    7.0887    9.9703 C   0  0  0  0  0  0  0  0  0  0  0  0
   14.6644    5.7558    9.8883 F   0  0  0  0  0  0  0  0  0  0  0  0
   13.1665    7.2830    9.5043 F   0  0  0  0  0  0  0  0  0  0  0  0
   14.6673    7.6348   11.3425 C   0  0  0  0  0  0  0  0  0  0  0  0
   14.9465    6.8420   12.4525 C   0  0  0  0  0  0  0  0  0  0  0  0
   15.2766    7.4449   13.6747 C   0  0  0  0  0  0  0  0  0  0  0  0
   15.2996    8.8268   13.8275 C   0  0  0  0  0  0  0  0  0  0  0  0
   15.6925    9.4239   14.9708 N   0  0  0  0  0  0  0  0  0  0  0  0
   15.7080   10.7823   15.0107 C   0  0  0  0  0  0  0  0  0  0  0  0
   15.2393   11.5569   13.9785 C   0  0  0  0  0  0  0  0  0  0  0  0
   14.9983   13.0712   14.0567 C   0  0  0  0  0  0  0  0  0  0  0  0
   14.6310   13.6426   12.6768 C   0  0  0  0  0  0  0  0  0  0  0  0
   15.0353   12.9998   11.3761 C   0  0  0  0  0  0  0  0  0  0  0  0
   13.5995   13.1349   11.6861 C   0  0  0  0  0  0  0  0  0  0  0  0
   16.1284   13.9289   14.7147 C   0  0  0  0  0  0  0  0  0  0  0  0
   15.7628   14.6234   16.0165 C   0  0  0  0  0  0  0  0  0  0  0  0
   15.2025   13.6878   16.9025 O   0  0  0  0  0  0  0  0  0  0  0  0
   14.0161   13.1086   16.4034 C   0  0  0  0  0  0  0  0  0  0  0  0
   13.7803   13.2988   14.9172 C   0  0  0  0  0  0  0  0  0  0  0  0
   14.8709   10.9173   12.8453 N   0  0  0  0  0  0  0  0  0  0  0  0
   14.9465    9.6001   12.7295 C   0  0  0  0  0  0  0  0  0  0  0  0
   14.7034    9.0199   11.4943 C   0  0  0  0  0  0  0  0  0  0  0  0
  1  2  1  0
  2  3  1  0
  2  4  1  0
  2  5  1  0
  5  6  2  0
  6  7  1  0
  7  8  2  0
  8  9  1  0
  9 10  2  0
 10 11  1  0
 11 12  1  0
 12 13  1  0
 13 14  1  0
 14 15  1  0
 12 16  1  0
 16 17  1  0
 17 18  1  0
 18 19  1  0
 19 20  1  0
 11 21  2  0
 21 22  1  0
 22 23  2  0
 23  5  1  0
 22  8  1  0
 20 12  1  0
 15 13  1  0
M  END
>  <HIPPO ID>  (181) 
66728

>  <ref_url>  (181) 
None

>  <ref_pdb>  (181) 
c0300a

>  <inchikey>  (181) 
OPLUMYKLNGIJGH-UHFFFAOYSA-N

>  <original SMILES>  (181) 
FC(F)(F)c1ccc2ncc(C3(C4CC4)CCOCC3)nc2c1

>  <generation_date>  (181) 
None

>  <tags>  (181) 
[]

>  <ref_mols>  (181) 
c0839a,c1299a

>  <alias>  (181) 
None

>  <original ID>  (181) 
OPLUMYKLNGIJGH-UHFFFAOYSA-N

>  <exports>  (181) 
['/opt/xchem-fragalysis-2/maxwin/CHIKV_HIPPO/hippo_prod/CHIKV_prod11c_recipes/Recipe_1GJWBFH_poses.sdf', '/opt/xchem-fragalysis-2/maxwin/CHIKV_HIPPO/hippo_prod/CHIKV_prod11c_recipes/Recipe_1GJXK8G_poses.sdf', '/opt/xchem-fragalysis-2/maxwin/CHIKV_HIPPO/hippo_prod/CHIKV_prod11c_recipes/Recipe_1GJXW46_poses.sdf']

>  <method>  (181) 
None

>  <submitter_email>  (181) 
None

>  <submitter_name>  (181) 
None

$$$$
ZEANSJNHKJYEAC-UHFFFAOYSA-N
     RDKit          3D

 23 26  0  0  0  0  0  0  0  0999 V2000
   14.7890    5.7249   10.1981 F   0  0  0  0  0  0  0  0  0  0  0  0
   14.7878    6.0761   11.5018 C   0  0  0  0  0  0  0  0  0  0  0  0
   13.7313    5.4580   12.0856 F   0  0  0  0  0  0  0  0  0  0  0  0
   15.9079    5.5086   12.0391 F   0  0  0  0  0  0  0  0  0  0  0  0
   14.7851    7.5589   11.7509 C   0  0  0  0  0  0  0  0  0  0  0  0
   14.7727    8.5294   10.7452 C   0  0  0  0  0  0  0  0  0  0  0  0
   14.8664    9.8880   11.1054 C   0  0  0  0  0  0  0  0  0  0  0  0
   14.9724   10.2941   12.4518 C   0  0  0  0  0  0  0  0  0  0  0  0
   15.1185   11.5856   12.8304 N   0  0  0  0  0  0  0  0  0  0  0  0
   15.2667   11.8906   14.1739 C   0  0  0  0  0  0  0  0  0  0  0  0
   15.2548   13.3618   14.6740 C   0  0  0  0  0  0  0  0  0  0  0  0
   14.4779   14.0972   13.6504 C   0  0  0  0  0  0  0  0  0  0  0  0
   14.7152   14.1916   12.1973 C   0  0  0  0  0  0  0  0  0  0  0  0
   14.8969   15.4164   13.0531 C   0  0  0  0  0  0  0  0  0  0  0  0
   14.3835   13.5226   15.9621 C   0  0  0  0  0  0  0  0  0  0  0  0
   14.1550   15.0023   16.3070 C   0  0  0  0  0  0  0  0  0  0  0  0
   15.2774   15.8154   15.9673 O   0  0  0  0  0  0  0  0  0  0  0  0
   16.4957   15.1085   16.1387 C   0  0  0  0  0  0  0  0  0  0  0  0
   16.6121   14.0034   15.0850 C   0  0  0  0  0  0  0  0  0  0  0  0
   15.3038   10.8636   15.0860 C   0  0  0  0  0  0  0  0  0  0  0  0
   15.1317    9.5737   14.7430 N   0  0  0  0  0  0  0  0  0  0  0  0
   14.9771    9.2989   13.4438 C   0  0  0  0  0  0  0  0  0  0  0  0
   14.8699    7.9712   13.0891 C   0  0  0  0  0  0  0  0  0  0  0  0
  1  2  1  0
  2  3  1  0
  2  4  1  0
  2  5  1  0
  5  6  2  0
  6  7  1  0
  7  8  2  0
  8  9  1  0
  9 10  2  0
 10 11  1  0
 11 12  1  0
 12 13  1  0
 13 14  1  0
 11 15  1  0
 15 16  1  0
 16 17  1  0
 17 18  1  0
 18 19  1  0
 10 20  1  0
 20 21  2  0
 21 22  1  0
 22 23  2  0
 23  5  1  0
 22  8  1  0
 19 11  1  0
 14 12  1  0
M  END
>  <HIPPO ID>  (182) 
66756

>  <ref_url>  (182) 
None

>  <ref_pdb>  (182) 
c0300a

>  <inchikey>  (182) 
ZEANSJNHKJYEAC-UHFFFAOYSA-N

>  <original SMILES>  (182) 
FC(F)(F)c1ccc2nc(C3(C4CC4)CCOCC3)cnc2c1

>  <generation_date>  (182) 
None

>  <tags>  (182) 
[]

>  <ref_mols>  (182) 
c0839a,c1299a

>  <alias>  (182) 
None

>  <original ID>  (182) 
ZEANSJNHKJYEAC-UHFFFAOYSA-N

>  <exports>  (182) 
['/opt/xchem-fragalysis-2/maxwin/CHIKV_HIPPO/hippo_prod/CHIKV_prod11c_recipes/Recipe_1GJWBFH_poses.sdf', '/opt/xchem-fragalysis-2/maxwin/CHIKV_HIPPO/hippo_prod/CHIKV_prod11c_recipes/Recipe_1GJXK8G_poses.sdf', '/opt/xchem-fragalysis-2/maxwin/CHIKV_HIPPO/hippo_prod/CHIKV_prod11c_recipes/Recipe_1GJXW46_poses.sdf']

>  <method>  (182) 
None

>  <submitter_email>  (182) 
None

>  <submitter_name>  (182) 
None

$$$$
YLTGAPROOKEUCH-UHFFFAOYSA-N
     RDKit          3D

 21 23  0  0  0  0  0  0  0  0999 V2000
   10.4176    4.9216   12.2790 C   0  0  0  0  0  0  0  0  0  0  0  0
   10.9150    5.8260   13.3443 C   0  0  0  0  0  0  0  0  0  0  0  0
   10.2289    6.1479   14.4924 C   0  0  0  0  0  0  0  0  0  0  0  0
   11.0825    7.2496   15.4682 S   0  0  0  0  0  0  0  0  0  0  0  0
   12.3699    7.3830   14.3369 C   0  0  0  0  0  0  0  0  0  0  0  0
   13.4248    8.4364   14.5924 C   0  0  0  0  0  0  0  0  0  0  0  0
   14.7557    8.3720   13.9799 N   0  0  0  0  0  0  0  0  0  0  0  0
   15.5896    7.2864   14.4697 C   0  0  0  0  0  0  0  0  0  0  0  0
   14.7934    8.6656   12.6219 C   0  0  0  0  0  0  0  0  0  0  0  0
   14.8454    7.6738   11.6378 C   0  0  0  0  0  0  0  0  0  0  0  0
   14.6973    7.9728   10.2929 C   0  0  0  0  0  0  0  0  0  0  0  0
   14.5388    6.9492    9.4582 F   0  0  0  0  0  0  0  0  0  0  0  0
   14.6402    9.2689    9.8108 C   0  0  0  0  0  0  0  0  0  0  0  0
   14.6593   10.2907   10.7594 C   0  0  0  0  0  0  0  0  0  0  0  0
   14.5623   11.6398   10.5529 N   0  0  0  0  0  0  0  0  0  0  0  0
   14.5546   12.1676   11.7467 C   0  0  0  0  0  0  0  0  0  0  0  0
   14.4717   13.4755   12.0256 N   0  0  0  0  0  0  0  0  0  0  0  0
   14.7207   11.2222   12.7266 N   0  0  0  0  0  0  0  0  0  0  0  0
   15.0124   11.4847   14.1147 C   0  0  0  0  0  0  0  0  0  0  0  0
   14.7235    9.9834   12.1223 C   0  0  0  0  0  0  0  0  0  0  0  0
   12.1757    6.4974   13.2956 C   0  0  0  0  0  0  0  0  0  0  0  0
  1  2  1  0
  2  3  2  0
  3  4  1  0
  4  5  1  0
  5  6  1  0
  6  7  1  0
  7  8  1  0
  7  9  1  0
  9 10  2  0
 10 11  1  0
 11 12  1  0
 11 13  2  0
 13 14  1  0
 14 15  1  0
 15 16  2  0
 16 17  1  0
 16 18  1  0
 18 19  1  0
 18 20  1  0
  5 21  2  0
 21  2  1  0
 20  9  1  0
 20 14  2  0
M  END
>  <HIPPO ID>  (183) 
73945

>  <ref_url>  (183) 
None

>  <ref_pdb>  (183) 
c1454a

>  <inchikey>  (183) 
YLTGAPROOKEUCH-UHFFFAOYSA-N

>  <original SMILES>  (183) 
Cc1csc(CN(C)c2cc(F)cc3nc(N)n(C)c23)c1

>  <generation_date>  (183) 
None

>  <tags>  (183) 
[]

>  <ref_mols>  (183) 
c0892a,c1203a

>  <alias>  (183) 
None

>  <original ID>  (183) 
YLTGAPROOKEUCH-UHFFFAOYSA-N

>  <exports>  (183) 
['/opt/xchem-fragalysis-2/maxwin/CHIKV_HIPPO/hippo_prod/CHIKV_prod11c_recipes/Recipe_1GJWBFH_poses.sdf', '/opt/xchem-fragalysis-2/maxwin/CHIKV_HIPPO/hippo_prod/CHIKV_prod11c_recipes/Recipe_1GJXK8G_poses.sdf', '/opt/xchem-fragalysis-2/maxwin/CHIKV_HIPPO/hippo_prod/CHIKV_prod11c_recipes/Recipe_1GJXW46_poses.sdf']

>  <method>  (183) 
None

>  <submitter_email>  (183) 
None

>  <submitter_name>  (183) 
None

$$$$
IIDWXUVFKFQALQ-UHFFFAOYSA-N
     RDKit          3D

 23 25  0  0  0  0  0  0  0  0999 V2000
   10.6116    4.8637   12.2838 C   0  0  0  0  0  0  0  0  0  0  0  0
   11.0045    5.8335   13.3332 C   0  0  0  0  0  0  0  0  0  0  0  0
   10.1704    6.2919   14.3255 C   0  0  0  0  0  0  0  0  0  0  0  0
   10.9358    7.4211   15.3359 S   0  0  0  0  0  0  0  0  0  0  0  0
   12.3827    7.4098   14.4004 C   0  0  0  0  0  0  0  0  0  0  0  0
   13.4335    8.4444   14.7461 C   0  0  0  0  0  0  0  0  0  0  0  0
   14.7777    8.4603   14.1559 N   0  0  0  0  0  0  0  0  0  0  0  0
   15.6465    7.3844   14.6059 C   0  0  0  0  0  0  0  0  0  0  0  0
   14.8181    8.8046   12.8100 C   0  0  0  0  0  0  0  0  0  0  0  0
   14.8285    7.8396   11.8046 C   0  0  0  0  0  0  0  0  0  0  0  0
   14.6074    8.1785   10.4760 C   0  0  0  0  0  0  0  0  0  0  0  0
   14.1803    7.0915    9.6060 C   0  0  0  0  0  0  0  0  0  0  0  0
   14.3182    5.9005    9.8129 O   0  0  0  0  0  0  0  0  0  0  0  0
   13.5673    7.6057    8.5324 O   0  0  0  0  0  0  0  0  0  0  0  0
   14.6242    9.4967   10.0257 C   0  0  0  0  0  0  0  0  0  0  0  0
   14.6859   10.4839   10.9992 C   0  0  0  0  0  0  0  0  0  0  0  0
   14.6165   11.8335   10.8208 N   0  0  0  0  0  0  0  0  0  0  0  0
   14.6120   12.3296   12.0266 C   0  0  0  0  0  0  0  0  0  0  0  0
   14.5521   13.6343   12.3256 N   0  0  0  0  0  0  0  0  0  0  0  0
   14.7717   11.3579   12.9821 N   0  0  0  0  0  0  0  0  0  0  0  0
   15.0888   11.5726   14.3705 C   0  0  0  0  0  0  0  0  0  0  0  0
   14.7562   10.1356   12.3489 C   0  0  0  0  0  0  0  0  0  0  0  0
   12.3059    6.4196   13.4410 C   0  0  0  0  0  0  0  0  0  0  0  0
  1  2  1  0
  2  3  2  0
  3  4  1  0
  4  5  1  0
  5  6  1  0
  6  7  1  0
  7  8  1  0
  7  9  1  0
  9 10  2  0
 10 11  1  0
 11 12  1  0
 12 13  2  0
 12 14  1  0
 11 15  2  0
 15 16  1  0
 16 17  1  0
 17 18  2  0
 18 19  1  0
 18 20  1  0
 20 21  1  0
 20 22  1  0
  5 23  2  0
 23  2  1  0
 22  9  1  0
 22 16  2  0
M  END
>  <HIPPO ID>  (184) 
74322

>  <ref_url>  (184) 
None

>  <ref_pdb>  (184) 
c1454a

>  <inchikey>  (184) 
IIDWXUVFKFQALQ-UHFFFAOYSA-N

>  <original SMILES>  (184) 
Cc1csc(CN(C)c2cc(C(=O)O)cc3nc(N)n(C)c23)c1

>  <generation_date>  (184) 
None

>  <tags>  (184) 
[]

>  <ref_mols>  (184) 
c0892a,c1203a

>  <alias>  (184) 
None

>  <original ID>  (184) 
IIDWXUVFKFQALQ-UHFFFAOYSA-N

>  <exports>  (184) 
['/opt/xchem-fragalysis-2/maxwin/CHIKV_HIPPO/hippo_prod/CHIKV_prod11c_recipes/Recipe_1GJWBFH_poses.sdf', '/opt/xchem-fragalysis-2/maxwin/CHIKV_HIPPO/hippo_prod/CHIKV_prod11c_recipes/Recipe_1GJXK8G_poses.sdf', '/opt/xchem-fragalysis-2/maxwin/CHIKV_HIPPO/hippo_prod/CHIKV_prod11c_recipes/Recipe_1GJXW46_poses.sdf']

>  <method>  (184) 
None

>  <submitter_email>  (184) 
None

>  <submitter_name>  (184) 
None

$$$$
FAAKLJKZFUVQPS-HNNXBMFYSA-N
     RDKit          3D

 25 28  0  0  0  0  0  0  0  0999 V2000
   12.9446    5.0824   11.9581 C   0  0  0  0  0  0  0  0  0  0  0  0
   12.2278    5.8463   13.0143 C   0  0  0  0  0  0  0  0  0  0  0  0
   10.7950    5.8494   13.0803 C   0  0  0  0  0  0  0  0  0  0  0  0
   10.3144    6.6283   14.1014 C   0  0  0  0  0  0  0  0  0  0  0  0
   11.5720    7.3650   14.9760 S   0  0  0  0  0  0  0  0  0  0  0  0
   12.7952    6.6240   14.0234 C   0  0  0  0  0  0  0  0  0  0  0  0
   14.2806    6.8562   14.3567 C   0  0  2  0  0  0  0  0  0  0  0  0
   14.6217    6.2487   15.7426 C   0  0  0  0  0  0  0  0  0  0  0  0
   14.4914    7.1410   16.9709 C   0  0  0  0  0  0  0  0  0  0  0  0
   15.7493    7.9574   17.2190 C   0  0  0  0  0  0  0  0  0  0  0  0
   15.9481    9.0548   16.1926 C   0  0  0  0  0  0  0  0  0  0  0  0
   16.0888    8.5760   14.7479 C   0  0  0  0  0  0  0  0  0  0  0  0
   14.7901    8.2582   14.1164 N   0  0  0  0  0  0  0  0  0  0  0  0
   14.7871    8.6754   12.7421 C   0  0  0  0  0  0  0  0  0  0  0  0
   14.8599    7.7476   11.6840 C   0  0  0  0  0  0  0  0  0  0  0  0
   14.7407    8.0862   10.3432 C   0  0  0  0  0  0  0  0  0  0  0  0
   14.6454    7.0937    9.4630 F   0  0  0  0  0  0  0  0  0  0  0  0
   14.6953    9.3876    9.9097 C   0  0  0  0  0  0  0  0  0  0  0  0
   14.6857   10.3613   10.9023 C   0  0  0  0  0  0  0  0  0  0  0  0
   14.6231   11.7095   10.7042 N   0  0  0  0  0  0  0  0  0  0  0  0
   14.5495   12.2199   11.8987 C   0  0  0  0  0  0  0  0  0  0  0  0
   14.5076   13.5316   12.1718 N   0  0  0  0  0  0  0  0  0  0  0  0
   14.5890   11.2537   12.8729 N   0  0  0  0  0  0  0  0  0  0  0  0
   14.5696   11.5059   14.2858 C   0  0  0  0  0  0  0  0  0  0  0  0
   14.7025   10.0166   12.2672 C   0  0  0  0  0  0  0  0  0  0  0  0
  1  2  1  0
  2  3  1  0
  3  4  2  0
  4  5  1  0
  5  6  1  0
  7  6  1  1
  7  8  1  0
  8  9  1  0
  9 10  1  0
 10 11  1  0
 11 12  1  0
 12 13  1  0
 13 14  1  0
 14 15  2  0
 15 16  1  0
 16 17  1  0
 16 18  2  0
 18 19  1  0
 19 20  1  0
 20 21  2  0
 21 22  1  0
 21 23  1  0
 23 24  1  0
 23 25  1  0
  6  2  2  0
 13  7  1  0
 25 14  1  0
 25 19  2  0
M  END
>  <HIPPO ID>  (185) 
74930

>  <ref_url>  (185) 
None

>  <ref_pdb>  (185) 
c1454a

>  <inchikey>  (185) 
FAAKLJKZFUVQPS-HNNXBMFYSA-N

>  <original SMILES>  (185) 
Cc1ccsc1[C@@H]1CCCCCN1c1cc(F)cc2nc(N)n(C)c12

>  <generation_date>  (185) 
None

>  <tags>  (185) 
[]

>  <ref_mols>  (185) 
c0892a,c1203a

>  <alias>  (185) 
None

>  <original ID>  (185) 
FAAKLJKZFUVQPS-HNNXBMFYSA-N

>  <exports>  (185) 
['/opt/xchem-fragalysis-2/maxwin/CHIKV_HIPPO/hippo_prod/CHIKV_prod11c_recipes/Recipe_1GJWBFH_poses.sdf', '/opt/xchem-fragalysis-2/maxwin/CHIKV_HIPPO/hippo_prod/CHIKV_prod11c_recipes/Recipe_1GJXK8G_poses.sdf', '/opt/xchem-fragalysis-2/maxwin/CHIKV_HIPPO/hippo_prod/CHIKV_prod11c_recipes/Recipe_1GJXW46_poses.sdf']

>  <method>  (185) 
None

>  <submitter_email>  (185) 
None

>  <submitter_name>  (185) 
None

$$$$
QSARRORVVCSXSB-IINYFYTJSA-N
     RDKit          3D

 25 28  0  0  0  0  0  0  0  0999 V2000
   14.5109    9.7614   10.3879 C   0  0  0  0  0  0  0  0  0  0  0  0
   14.5271   10.6447   11.5303 N   0  0  0  0  0  0  0  0  0  0  0  0
   14.4401   12.0120   11.4078 C   0  0  0  0  0  0  0  0  0  0  0  0
   13.9947   12.6650   10.3278 N   0  0  0  0  0  0  0  0  0  0  0  0
   14.7826   12.6367   12.4830 N   0  0  0  0  0  0  0  0  0  0  0  0
   14.9546   11.6573   13.3985 C   0  0  0  0  0  0  0  0  0  0  0  0
   15.3526   11.8788   14.7128 C   0  0  0  0  0  0  0  0  0  0  0  0
   15.5992   10.7853   15.5025 C   0  0  0  0  0  0  0  0  0  0  0  0
   15.3363    9.5191   15.0339 C   0  0  0  0  0  0  0  0  0  0  0  0
   14.8482    9.2354   13.7343 C   0  0  0  0  0  0  0  0  0  0  0  0
   14.5214    7.8675   13.4679 N   0  0  0  0  0  0  0  0  0  0  0  0
   13.5458    7.3442   14.4602 C   0  0  1  0  0  0  0  0  0  0  0  0
   12.3292    6.6959   13.8780 C   0  0  0  0  0  0  0  0  0  0  0  0
   12.1649    5.9642   12.7150 C   0  0  0  0  0  0  0  0  0  0  0  0
   10.8626    5.3884   12.6328 C   0  0  0  0  0  0  0  0  0  0  0  0
   10.1078    5.7144   13.7268 C   0  0  0  0  0  0  0  0  0  0  0  0
    8.5456    5.1456   14.1235 Cl  0  0  0  0  0  0  0  0  0  0  0  0
   10.8664    6.7876   14.7768 S   0  0  0  0  0  0  0  0  0  0  0  0
   14.3945    6.0736   15.4834 S   0  0  0  0  0  0  0  0  0  0  0  0
   15.5451    5.6988   14.1801 C   0  0  0  0  0  0  0  0  0  0  0  0
   15.7843    7.0618   13.5606 C   0  0  1  0  0  0  0  0  0  0  0  0
   16.3265    6.7977   12.2084 C   0  0  0  0  0  0  0  0  0  0  0  0
   17.2994    6.0998   11.9896 O   0  0  0  0  0  0  0  0  0  0  0  0
   15.6891    7.4140   11.2145 O   0  0  0  0  0  0  0  0  0  0  0  0
   14.7553   10.3647   12.8749 C   0  0  0  0  0  0  0  0  0  0  0  0
  1  2  1  0
  2  3  1  0
  3  4  1  0
  3  5  2  0
  5  6  1  0
  6  7  2  0
  7  8  1  0
  8  9  2  0
  9 10  1  0
 10 11  1  0
 11 12  1  0
 12 13  1  6
 13 14  2  0
 14 15  1  0
 15 16  2  0
 16 17  1  0
 16 18  1  0
 12 19  1  0
 19 20  1  0
 20 21  1  0
 21 22  1  6
 22 23  2  0
 22 24  1  0
 10 25  2  0
 25  2  1  0
 25  6  1  0
 21 11  1  0
 18 13  1  0
M  END
>  <HIPPO ID>  (186) 
74949

>  <ref_url>  (186) 
None

>  <ref_pdb>  (186) 
c1454a

>  <inchikey>  (186) 
QSARRORVVCSXSB-IINYFYTJSA-N

>  <original SMILES>  (186) 
Cn1c(N)nc2cccc(N3[C@@H](c4ccc(Cl)s4)SC[C@H]3C(=O)O)c21

>  <generation_date>  (186) 
None

>  <tags>  (186) 
[]

>  <ref_mols>  (186) 
c0892a,c1203a

>  <alias>  (186) 
None

>  <original ID>  (186) 
QSARRORVVCSXSB-IINYFYTJSA-N

>  <exports>  (186) 
['/opt/xchem-fragalysis-2/maxwin/CHIKV_HIPPO/hippo_prod/CHIKV_prod11c_recipes/Recipe_1GJWBFH_poses.sdf', '/opt/xchem-fragalysis-2/maxwin/CHIKV_HIPPO/hippo_prod/CHIKV_prod11c_recipes/Recipe_1GJXK8G_poses.sdf', '/opt/xchem-fragalysis-2/maxwin/CHIKV_HIPPO/hippo_prod/CHIKV_prod11c_recipes/Recipe_1GJXW46_poses.sdf']

>  <method>  (186) 
None

>  <submitter_email>  (186) 
None

>  <submitter_name>  (186) 
None

$$$$
QSARRORVVCSXSB-YGRLFVJLSA-N
     RDKit          3D

 25 28  0  0  0  0  0  0  0  0999 V2000
   14.7438    8.5654   10.4444 C   0  0  0  0  0  0  0  0  0  0  0  0
   14.7439    9.5330   11.5157 N   0  0  0  0  0  0  0  0  0  0  0  0
   14.6876   10.8984   11.3658 C   0  0  0  0  0  0  0  0  0  0  0  0
   14.4192   11.5212   10.2059 N   0  0  0  0  0  0  0  0  0  0  0  0
   14.8366   11.5177   12.5007 N   0  0  0  0  0  0  0  0  0  0  0  0
   14.7822   10.5383   13.4472 C   0  0  0  0  0  0  0  0  0  0  0  0
   14.7949   10.6912   14.8349 C   0  0  0  0  0  0  0  0  0  0  0  0
   14.6777    9.5542   15.6259 C   0  0  0  0  0  0  0  0  0  0  0  0
   14.6060    8.2916   15.0452 C   0  0  0  0  0  0  0  0  0  0  0  0
   14.6962    8.0862   13.6530 C   0  0  0  0  0  0  0  0  0  0  0  0
   14.9165    6.8313   13.1225 N   0  0  0  0  0  0  0  0  0  0  0  0
   16.2569    6.1670   13.4127 C   0  0  1  0  0  0  0  0  0  0  0  0
   17.0537    6.5472   14.6805 C   0  0  0  0  0  0  0  0  0  0  0  0
   17.5043    5.7359   15.4769 O   0  0  0  0  0  0  0  0  0  0  0  0
   17.3714    7.8505   14.8231 O   0  0  0  0  0  0  0  0  0  0  0  0
   16.0807    4.6393   13.3854 C   0  0  0  0  0  0  0  0  0  0  0  0
   14.4206    4.3934   14.0126 S   0  0  0  0  0  0  0  0  0  0  0  0
   13.8283    5.8209   13.0764 C   0  0  1  0  0  0  0  0  0  0  0  0
   12.3611    6.0422   13.3244 C   0  0  0  0  0  0  0  0  0  0  0  0
   11.3338    5.4946   12.5633 C   0  0  0  0  0  0  0  0  0  0  0  0
   10.0463    5.7123   13.1268 C   0  0  0  0  0  0  0  0  0  0  0  0
   10.1341    6.4477   14.2753 C   0  0  0  0  0  0  0  0  0  0  0  0
    8.8399    6.9361   15.2854 Cl  0  0  0  0  0  0  0  0  0  0  0  0
   11.7156    6.8537   14.6910 S   0  0  0  0  0  0  0  0  0  0  0  0
   14.7300    9.2637   12.8750 C   0  0  0  0  0  0  0  0  0  0  0  0
  1  2  1  0
  2  3  1  0
  3  4  1  0
  3  5  2  0
  5  6  1  0
  6  7  2  0
  7  8  1  0
  8  9  2  0
  9 10  1  0
 10 11  1  0
 11 12  1  0
 12 13  1  1
 13 14  2  0
 13 15  1  0
 12 16  1  0
 16 17  1  0
 17 18  1  0
 18 19  1  1
 19 20  2  0
 20 21  1  0
 21 22  2  0
 22 23  1  0
 22 24  1  0
 10 25  2  0
 25  2  1  0
 25  6  1  0
 18 11  1  0
 24 19  1  0
M  END
>  <HIPPO ID>  (187) 
74950

>  <ref_url>  (187) 
None

>  <ref_pdb>  (187) 
c1454a

>  <inchikey>  (187) 
QSARRORVVCSXSB-YGRLFVJLSA-N

>  <original SMILES>  (187) 
Cn1c(N)nc2cccc(N3[C@@H](C(=O)O)CS[C@H]3c3ccc(Cl)s3)c21

>  <generation_date>  (187) 
None

>  <tags>  (187) 
[]

>  <ref_mols>  (187) 
c0892a,c1203a

>  <alias>  (187) 
None

>  <original ID>  (187) 
QSARRORVVCSXSB-YGRLFVJLSA-N

>  <exports>  (187) 
['/opt/xchem-fragalysis-2/maxwin/CHIKV_HIPPO/hippo_prod/CHIKV_prod11c_recipes/Recipe_1GJWBFH_poses.sdf', '/opt/xchem-fragalysis-2/maxwin/CHIKV_HIPPO/hippo_prod/CHIKV_prod11c_recipes/Recipe_1GJXK8G_poses.sdf', '/opt/xchem-fragalysis-2/maxwin/CHIKV_HIPPO/hippo_prod/CHIKV_prod11c_recipes/Recipe_1GJXW46_poses.sdf']

>  <method>  (187) 
None

>  <submitter_email>  (187) 
None

>  <submitter_name>  (187) 
None

$$$$
QSARRORVVCSXSB-HZMBPMFUSA-N
     RDKit          3D

 25 28  0  0  0  0  0  0  0  0999 V2000
   14.8845    9.5372   10.1936 C   0  0  0  0  0  0  0  0  0  0  0  0
   14.7641   10.3950   11.3498 N   0  0  0  0  0  0  0  0  0  0  0  0
   14.6150   11.7601   11.2529 C   0  0  0  0  0  0  0  0  0  0  0  0
   14.1329   12.4386   10.2089 N   0  0  0  0  0  0  0  0  0  0  0  0
   14.8391   12.3770   12.3591 N   0  0  0  0  0  0  0  0  0  0  0  0
   14.8459   11.3909   13.2742 C   0  0  0  0  0  0  0  0  0  0  0  0
   14.9452   11.6271   14.6361 C   0  0  0  0  0  0  0  0  0  0  0  0
   14.8721   10.5407   15.4577 C   0  0  0  0  0  0  0  0  0  0  0  0
   14.7291    9.2762   14.9340 C   0  0  0  0  0  0  0  0  0  0  0  0
   14.8210    8.9522   13.5631 C   0  0  0  0  0  0  0  0  0  0  0  0
   15.0483    7.6111   13.2693 N   0  0  0  0  0  0  0  0  0  0  0  0
   15.7163    6.7374   14.3118 C   0  0  2  0  0  0  0  0  0  0  0  0
   17.1758    7.0780   14.6095 C   0  0  0  0  0  0  0  0  0  0  0  0
   18.1036    6.2811   14.5597 O   0  0  0  0  0  0  0  0  0  0  0  0
   17.4248    8.3377   15.0160 O   0  0  0  0  0  0  0  0  0  0  0  0
   15.6303    5.2782   13.8651 C   0  0  0  0  0  0  0  0  0  0  0  0
   15.2432    5.3654   12.1149 S   0  0  0  0  0  0  0  0  0  0  0  0
   14.1961    6.8460   12.3720 C   0  0  1  0  0  0  0  0  0  0  0  0
   12.8171    6.3820   12.8159 C   0  0  0  0  0  0  0  0  0  0  0  0
   11.9945    5.4882   12.1394 C   0  0  0  0  0  0  0  0  0  0  0  0
   10.7280    5.3085   12.7611 C   0  0  0  0  0  0  0  0  0  0  0  0
   10.6249    6.0767   13.8855 C   0  0  0  0  0  0  0  0  0  0  0  0
    9.2471    6.2169   14.8942 Cl  0  0  0  0  0  0  0  0  0  0  0  0
   12.0333    6.9371   14.2467 S   0  0  0  0  0  0  0  0  0  0  0  0
   14.7837   10.0943   12.7111 C   0  0  0  0  0  0  0  0  0  0  0  0
  1  2  1  0
  2  3  1  0
  3  4  1  0
  3  5  2  0
  5  6  1  0
  6  7  2  0
  7  8  1  0
  8  9  2  0
  9 10  1  0
 10 11  1  0
 11 12  1  0
 12 13  1  6
 13 14  2  0
 13 15  1  0
 12 16  1  0
 16 17  1  0
 17 18  1  0
 18 19  1  1
 19 20  2  0
 20 21  1  0
 21 22  2  0
 22 23  1  0
 22 24  1  0
 10 25  2  0
 25  2  1  0
 25  6  1  0
 18 11  1  0
 24 19  1  0
M  END
>  <HIPPO ID>  (188) 
74951

>  <ref_url>  (188) 
None

>  <ref_pdb>  (188) 
c1454a

>  <inchikey>  (188) 
QSARRORVVCSXSB-HZMBPMFUSA-N

>  <original SMILES>  (188) 
Cn1c(N)nc2cccc(N3[C@H](C(=O)O)CS[C@H]3c3ccc(Cl)s3)c21

>  <generation_date>  (188) 
None

>  <tags>  (188) 
[]

>  <ref_mols>  (188) 
c0892a,c1203a

>  <alias>  (188) 
None

>  <original ID>  (188) 
QSARRORVVCSXSB-HZMBPMFUSA-N

>  <exports>  (188) 
['/opt/xchem-fragalysis-2/maxwin/CHIKV_HIPPO/hippo_prod/CHIKV_prod11c_recipes/Recipe_1GJWBFH_poses.sdf', '/opt/xchem-fragalysis-2/maxwin/CHIKV_HIPPO/hippo_prod/CHIKV_prod11c_recipes/Recipe_1GJXK8G_poses.sdf', '/opt/xchem-fragalysis-2/maxwin/CHIKV_HIPPO/hippo_prod/CHIKV_prod11c_recipes/Recipe_1GJXW46_poses.sdf']

>  <method>  (188) 
None

>  <submitter_email>  (188) 
None

>  <submitter_name>  (188) 
None

$$$$
HLZVMXCWEWCTOV-OAHLLOKOSA-N
     RDKit          3D

 27 30  0  0  0  0  0  0  0  0999 V2000
   13.1460    4.8027   12.2887 C   0  0  0  0  0  0  0  0  0  0  0  0
   12.3516    5.7326   13.1391 C   0  0  0  0  0  0  0  0  0  0  0  0
   10.9123    5.6298   13.0847 C   0  0  0  0  0  0  0  0  0  0  0  0
   10.2707    6.4687   13.9526 C   0  0  0  0  0  0  0  0  0  0  0  0
   11.3678    7.3966   14.8415 S   0  0  0  0  0  0  0  0  0  0  0  0
   12.7667    6.7218   14.0380 C   0  0  0  0  0  0  0  0  0  0  0  0
   14.1149    7.3114   14.5276 C   0  0  1  0  0  0  0  0  0  0  0  0
   14.5640    6.6600   15.8658 C   0  0  0  0  0  0  0  0  0  0  0  0
   15.0424    5.2122   15.7800 C   0  0  0  0  0  0  0  0  0  0  0  0
   16.5178    5.0497   15.4319 C   0  0  0  0  0  0  0  0  0  0  0  0
   17.0874    6.0980   14.4882 C   0  0  0  0  0  0  0  0  0  0  0  0
   16.1586    6.4243   13.3288 C   0  0  0  0  0  0  0  0  0  0  0  0
   15.2705    7.5746   13.6261 N   0  0  0  0  0  0  0  0  0  0  0  0
   14.9588    8.3624   12.4886 C   0  0  0  0  0  0  0  0  0  0  0  0
   14.7677    7.7148   11.2648 C   0  0  0  0  0  0  0  0  0  0  0  0
   14.4593    8.3477   10.0720 C   0  0  0  0  0  0  0  0  0  0  0  0
   13.7978    7.4862    9.0883 C   0  0  0  0  0  0  0  0  0  0  0  0
   13.5948    6.2983    9.3018 O   0  0  0  0  0  0  0  0  0  0  0  0
   13.3399    8.1373    8.0045 O   0  0  0  0  0  0  0  0  0  0  0  0
   14.5962    9.7138    9.9511 C   0  0  0  0  0  0  0  0  0  0  0  0
   14.7092   10.4217   11.1427 C   0  0  0  0  0  0  0  0  0  0  0  0
   14.6467   11.7748   11.2576 N   0  0  0  0  0  0  0  0  0  0  0  0
   14.6271   11.9926   12.5404 C   0  0  0  0  0  0  0  0  0  0  0  0
   14.4630   13.2044   13.0957 N   0  0  0  0  0  0  0  0  0  0  0  0
   14.8772   10.8411   13.2544 N   0  0  0  0  0  0  0  0  0  0  0  0
   15.2182   10.7835   14.6493 C   0  0  0  0  0  0  0  0  0  0  0  0
   14.8369    9.7714   12.3817 C   0  0  0  0  0  0  0  0  0  0  0  0
  1  2  1  0
  2  3  1  0
  3  4  2  0
  4  5  1  0
  5  6  1  0
  7  6  1  6
  7  8  1  0
  8  9  1  0
  9 10  1  0
 10 11  1  0
 11 12  1  0
 12 13  1  0
 13 14  1  0
 14 15  2  0
 15 16  1  0
 16 17  1  0
 17 18  2  0
 17 19  1  0
 16 20  2  0
 20 21  1  0
 21 22  1  0
 22 23  2  0
 23 24  1  0
 23 25  1  0
 25 26  1  0
 25 27  1  0
  6  2  2  0
 13  7  1  0
 27 14  1  0
 27 21  2  0
M  END
>  <HIPPO ID>  (189) 
75257

>  <ref_url>  (189) 
None

>  <ref_pdb>  (189) 
c1454a

>  <inchikey>  (189) 
HLZVMXCWEWCTOV-OAHLLOKOSA-N

>  <original SMILES>  (189) 
Cc1ccsc1[C@H]1CCCCCN1c1cc(C(=O)O)cc2nc(N)n(C)c12

>  <generation_date>  (189) 
None

>  <tags>  (189) 
[]

>  <ref_mols>  (189) 
c0892a,c1203a

>  <alias>  (189) 
None

>  <original ID>  (189) 
HLZVMXCWEWCTOV-OAHLLOKOSA-N

>  <exports>  (189) 
['/opt/xchem-fragalysis-2/maxwin/CHIKV_HIPPO/hippo_prod/CHIKV_prod11c_recipes/Recipe_1GJWBFH_poses.sdf', '/opt/xchem-fragalysis-2/maxwin/CHIKV_HIPPO/hippo_prod/CHIKV_prod11c_recipes/Recipe_1GJXK8G_poses.sdf', '/opt/xchem-fragalysis-2/maxwin/CHIKV_HIPPO/hippo_prod/CHIKV_prod11c_recipes/Recipe_1GJXW46_poses.sdf']

>  <method>  (189) 
None

>  <submitter_email>  (189) 
None

>  <submitter_name>  (189) 
None

$$$$
HXHRCVANLJFORA-MRVPVSSYSA-N
     RDKit          3D

 17 18  0  0  0  0  0  0  0  0999 V2000
   16.1865    2.3794   14.1291 C   0  0  0  0  0  0  0  0  0  0  0  0
   16.2554    2.7304   15.6067 C   0  0  2  0  0  0  0  0  0  0  0  0
   17.0790    4.0262   15.7821 C   0  0  0  0  0  0  0  0  0  0  0  0
   18.5091    3.8614   15.4695 N   0  0  0  0  0  0  0  0  0  0  0  0
   19.0281    2.5765   15.9930 C   0  0  0  0  0  0  0  0  0  0  0  0
   18.1168    1.8580   17.0134 C   0  0  0  0  0  0  0  0  0  0  0  0
   16.7749    1.6527   16.4672 N   0  0  0  0  0  0  0  0  0  0  0  0
   16.1357    0.4258   16.5477 C   0  0  0  0  0  0  0  0  0  0  0  0
   15.5029   -0.1136   15.6531 O   0  0  0  0  0  0  0  0  0  0  0  0
   16.2159   -0.3161   17.8100 C   0  0  0  0  0  0  0  0  0  0  0  0
   15.4651    0.1155   18.9031 C   0  0  0  0  0  0  0  0  0  0  0  0
   15.4570   -0.6641   20.0506 C   0  0  0  0  0  0  0  0  0  0  0  0
   14.7364   -0.2696   21.1091 F   0  0  0  0  0  0  0  0  0  0  0  0
   16.1811   -1.8502   20.1231 C   0  0  0  0  0  0  0  0  0  0  0  0
   16.9051   -2.2750   19.0126 C   0  0  0  0  0  0  0  0  0  0  0  0
   17.7922   -3.7453   19.0802 Cl  0  0  0  0  0  0  0  0  0  0  0  0
   16.9223   -1.5191   17.8458 C   0  0  0  0  0  0  0  0  0  0  0  0
  2  1  1  6
  2  3  1  0
  3  4  1  0
  4  5  1  0
  5  6  1  0
  6  7  1  0
  7  8  1  0
  8  9  2  0
  8 10  1  0
 10 11  2  0
 11 12  1  0
 12 13  1  0
 12 14  2  0
 14 15  1  0
 15 16  1  0
 15 17  2  0
  7  2  1  0
 17 10  1  0
M  END
>  <HIPPO ID>  (190) 
78022

>  <ref_url>  (190) 
None

>  <ref_pdb>  (190) 
c0300a

>  <inchikey>  (190) 
HXHRCVANLJFORA-MRVPVSSYSA-N

>  <original SMILES>  (190) 
C[C@@H]1CNCCN1C(=O)c1cc(F)cc(Cl)c1

>  <generation_date>  (190) 
None

>  <tags>  (190) 
[]

>  <ref_mols>  (190) 
c0398a,c0585a

>  <alias>  (190) 
None

>  <original ID>  (190) 
HXHRCVANLJFORA-MRVPVSSYSA-N

>  <exports>  (190) 
['/opt/xchem-fragalysis-2/maxwin/CHIKV_HIPPO/hippo_prod/CHIKV_prod11c_recipes/Recipe_1GJWBFH_poses.sdf', '/opt/xchem-fragalysis-2/maxwin/CHIKV_HIPPO/hippo_prod/CHIKV_prod11c_recipes/Recipe_1GJXK8G_poses.sdf', '/opt/xchem-fragalysis-2/maxwin/CHIKV_HIPPO/hippo_prod/CHIKV_prod11c_recipes/Recipe_1GJXW46_poses.sdf']

>  <method>  (190) 
None

>  <submitter_email>  (190) 
None

>  <submitter_name>  (190) 
None

$$$$
HXHRCVANLJFORA-MRVPVSSYSA-N
     RDKit          3D

 17 18  0  0  0  0  0  0  0  0999 V2000
   16.0843    2.4040   14.1689 C   0  0  0  0  0  0  0  0  0  0  0  0
   16.2412    2.7276   15.6522 C   0  0  2  0  0  0  0  0  0  0  0  0
   17.0545    4.0335   15.7993 C   0  0  0  0  0  0  0  0  0  0  0  0
   18.4688    3.8609   15.4180 N   0  0  0  0  0  0  0  0  0  0  0  0
   19.0502    2.8194   16.2862 C   0  0  0  0  0  0  0  0  0  0  0  0
   18.2728    1.4912   16.2968 C   0  0  0  0  0  0  0  0  0  0  0  0
   16.8270    1.6523   16.4774 N   0  0  0  0  0  0  0  0  0  0  0  0
   16.1251    0.4453   16.5568 C   0  0  0  0  0  0  0  0  0  0  0  0
   15.5406   -0.1099   15.6401 O   0  0  0  0  0  0  0  0  0  0  0  0
   16.1831   -0.2789   17.8299 C   0  0  0  0  0  0  0  0  0  0  0  0
   15.4375    0.1644   18.9194 C   0  0  0  0  0  0  0  0  0  0  0  0
   15.4231   -0.6140   20.0689 C   0  0  0  0  0  0  0  0  0  0  0  0
   14.7022   -0.2142   21.1253 F   0  0  0  0  0  0  0  0  0  0  0  0
   16.1384   -1.8061   20.1473 C   0  0  0  0  0  0  0  0  0  0  0  0
   16.8590   -2.2415   19.0398 C   0  0  0  0  0  0  0  0  0  0  0  0
   17.7343   -3.7191   19.1076 Cl  0  0  0  0  0  0  0  0  0  0  0  0
   16.8804   -1.4888   17.8722 C   0  0  0  0  0  0  0  0  0  0  0  0
  2  1  1  6
  2  3  1  0
  3  4  1  0
  4  5  1  0
  5  6  1  0
  6  7  1  0
  7  8  1  0
  8  9  2  0
  8 10  1  0
 10 11  2  0
 11 12  1  0
 12 13  1  0
 12 14  2  0
 14 15  1  0
 15 16  1  0
 15 17  2  0
  7  2  1  0
 17 10  1  0
M  END
>  <HIPPO ID>  (191) 
78023

>  <ref_url>  (191) 
None

>  <ref_pdb>  (191) 
c0300a

>  <inchikey>  (191) 
HXHRCVANLJFORA-MRVPVSSYSA-N

>  <original SMILES>  (191) 
C[C@@H]1CNCCN1C(=O)c1cc(F)cc(Cl)c1

>  <generation_date>  (191) 
None

>  <tags>  (191) 
[]

>  <ref_mols>  (191) 
c0398a,c0585a

>  <alias>  (191) 
None

>  <original ID>  (191) 
HXHRCVANLJFORA-MRVPVSSYSA-N

>  <exports>  (191) 
['/opt/xchem-fragalysis-2/maxwin/CHIKV_HIPPO/hippo_prod/CHIKV_prod11c_recipes/Recipe_1GJWBFH_poses.sdf', '/opt/xchem-fragalysis-2/maxwin/CHIKV_HIPPO/hippo_prod/CHIKV_prod11c_recipes/Recipe_1GJXK8G_poses.sdf', '/opt/xchem-fragalysis-2/maxwin/CHIKV_HIPPO/hippo_prod/CHIKV_prod11c_recipes/Recipe_1GJXW46_poses.sdf']

>  <method>  (191) 
None

>  <submitter_email>  (191) 
None

>  <submitter_name>  (191) 
None

$$$$
IUKJAQYQDJSHND-SNVBAGLBSA-N
     RDKit          3D

 17 18  0  0  0  0  0  0  0  0999 V2000
   16.6464   -2.4921   21.4388 C   0  0  0  0  0  0  0  0  0  0  0  0
   16.4389   -1.7781   20.1398 C   0  0  0  0  0  0  0  0  0  0  0  0
   17.1644   -2.1743   19.0085 C   0  0  0  0  0  0  0  0  0  0  0  0
   17.0646   -1.4462   17.8268 C   0  0  0  0  0  0  0  0  0  0  0  0
   16.2618   -0.3033   17.7892 C   0  0  0  0  0  0  0  0  0  0  0  0
   16.1602    0.4490   16.5341 C   0  0  0  0  0  0  0  0  0  0  0  0
   15.5295   -0.0702   15.6286 O   0  0  0  0  0  0  0  0  0  0  0  0
   16.8509    1.6642   16.4728 N   0  0  0  0  0  0  0  0  0  0  0  0
   18.3036    1.5394   16.3293 C   0  0  0  0  0  0  0  0  0  0  0  0
   19.0461    2.8852   16.4054 C   0  0  0  0  0  0  0  0  0  0  0  0
   18.4634    3.9558   15.5766 N   0  0  0  0  0  0  0  0  0  0  0  0
   17.0279    4.0670   15.8861 C   0  0  0  0  0  0  0  0  0  0  0  0
   16.2729    2.7405   15.6468 C   0  0  1  0  0  0  0  0  0  0  0  0
   16.2132    2.4554   14.1497 C   0  0  0  0  0  0  0  0  0  0  0  0
   15.4959    0.0801   18.8873 C   0  0  0  0  0  0  0  0  0  0  0  0
   15.5923   -0.6653   20.0542 C   0  0  0  0  0  0  0  0  0  0  0  0
   14.8694   -0.2926   21.1217 F   0  0  0  0  0  0  0  0  0  0  0  0
  1  2  1  0
  2  3  2  0
  3  4  1  0
  4  5  2  0
  5  6  1  0
  6  7  2  0
  6  8  1  0
  8  9  1  0
  9 10  1  0
 10 11  1  0
 11 12  1  0
 12 13  1  0
 13 14  1  6
  5 15  1  0
 15 16  2  0
 16 17  1  0
 16  2  1  0
 13  8  1  0
M  END
>  <HIPPO ID>  (192) 
78068

>  <ref_url>  (192) 
None

>  <ref_pdb>  (192) 
c0300a

>  <inchikey>  (192) 
IUKJAQYQDJSHND-SNVBAGLBSA-N

>  <original SMILES>  (192) 
Cc1ccc(C(=O)N2CCNC[C@H]2C)cc1F

>  <generation_date>  (192) 
None

>  <tags>  (192) 
[]

>  <ref_mols>  (192) 
c0398a,c0585a

>  <alias>  (192) 
None

>  <original ID>  (192) 
IUKJAQYQDJSHND-SNVBAGLBSA-N

>  <exports>  (192) 
['/opt/xchem-fragalysis-2/maxwin/CHIKV_HIPPO/hippo_prod/CHIKV_prod11_recipes/Recipe_1G8PPKY_poses.sdf', '/opt/xchem-fragalysis-2/maxwin/CHIKV_HIPPO/hippo_prod/CHIKV_prod11c_recipes/Recipe_1GJXW46_poses.sdf']

>  <method>  (192) 
None

>  <submitter_email>  (192) 
None

>  <submitter_name>  (192) 
None

$$$$
IUKJAQYQDJSHND-SNVBAGLBSA-N
     RDKit          3D

 17 18  0  0  0  0  0  0  0  0999 V2000
   16.6763   -2.5357   21.4076 C   0  0  0  0  0  0  0  0  0  0  0  0
   16.4675   -1.8085   20.1163 C   0  0  0  0  0  0  0  0  0  0  0  0
   17.2038   -2.1829   18.9834 C   0  0  0  0  0  0  0  0  0  0  0  0
   17.0994   -1.4455   17.8073 C   0  0  0  0  0  0  0  0  0  0  0  0
   16.2773   -0.3176   17.7784 C   0  0  0  0  0  0  0  0  0  0  0  0
   16.1601    0.4523   16.5365 C   0  0  0  0  0  0  0  0  0  0  0  0
   15.5117   -0.0665   15.6413 O   0  0  0  0  0  0  0  0  0  0  0  0
   16.7941    1.6847   16.4624 N   0  0  0  0  0  0  0  0  0  0  0  0
   18.0491    1.9774   17.1535 C   0  0  0  0  0  0  0  0  0  0  0  0
   19.0148    2.7689   16.2430 C   0  0  0  0  0  0  0  0  0  0  0  0
   18.4639    4.0000   15.6313 N   0  0  0  0  0  0  0  0  0  0  0  0
   17.0072    4.0849   15.8302 C   0  0  0  0  0  0  0  0  0  0  0  0
   16.2716    2.7478   15.5882 C   0  0  1  0  0  0  0  0  0  0  0  0
   16.3208    2.4066   14.1084 C   0  0  0  0  0  0  0  0  0  0  0  0
   15.5008    0.0438   18.8778 C   0  0  0  0  0  0  0  0  0  0  0  0
   15.6060   -0.7072   20.0392 C   0  0  0  0  0  0  0  0  0  0  0  0
   14.8791   -0.3487   21.1086 F   0  0  0  0  0  0  0  0  0  0  0  0
  1  2  1  0
  2  3  2  0
  3  4  1  0
  4  5  2  0
  5  6  1  0
  6  7  2  0
  6  8  1  0
  8  9  1  0
  9 10  1  0
 10 11  1  0
 11 12  1  0
 12 13  1  0
 13 14  1  6
  5 15  1  0
 15 16  2  0
 16 17  1  0
 16  2  1  0
 13  8  1  0
M  END
>  <HIPPO ID>  (193) 
78069

>  <ref_url>  (193) 
None

>  <ref_pdb>  (193) 
c0300a

>  <inchikey>  (193) 
IUKJAQYQDJSHND-SNVBAGLBSA-N

>  <original SMILES>  (193) 
Cc1ccc(C(=O)N2CCNC[C@H]2C)cc1F

>  <generation_date>  (193) 
None

>  <tags>  (193) 
[]

>  <ref_mols>  (193) 
c0398a,c0585a

>  <alias>  (193) 
None

>  <original ID>  (193) 
IUKJAQYQDJSHND-SNVBAGLBSA-N

>  <exports>  (193) 
['/opt/xchem-fragalysis-2/maxwin/CHIKV_HIPPO/hippo_prod/CHIKV_prod11_recipes/Recipe_1G8PPKY_poses.sdf', '/opt/xchem-fragalysis-2/maxwin/CHIKV_HIPPO/hippo_prod/CHIKV_prod11c_recipes/Recipe_1GJXW46_poses.sdf']

>  <method>  (193) 
None

>  <submitter_email>  (193) 
None

>  <submitter_name>  (193) 
None

$$$$
DSKLWYLUOYOGIS-VHSXEESVSA-N
     RDKit          3D

 17 18  0  0  0  0  0  0  0  0999 V2000
   16.5266    3.1009   13.2963 C   0  0  0  0  0  0  0  0  0  0  0  0
   17.5007    3.4380   14.4326 C   0  0  2  0  0  0  0  0  0  0  0  0
   18.7506    2.6792   14.2443 N   0  0  0  0  0  0  0  0  0  0  0  0
   19.2536    2.1425   15.5103 C   0  0  0  0  0  0  0  0  0  0  0  0
   18.2170    1.2710   16.2416 C   0  0  0  0  0  0  0  0  0  0  0  0
   16.8890    1.8818   16.3335 N   0  0  0  0  0  0  0  0  0  0  0  0
   15.9066    1.4072   17.2147 C   0  0  0  0  0  0  0  0  0  0  0  0
   14.9064    2.0643   17.4914 O   0  0  0  0  0  0  0  0  0  0  0  0
   16.0500    0.1601   18.0089 C   0  0  0  0  0  0  0  0  0  0  0  0
   16.5782   -1.0434   17.5406 C   0  0  0  0  0  0  0  0  0  0  0  0
   16.6898   -2.1431   18.4009 C   0  0  0  0  0  0  0  0  0  0  0  0
   16.2262   -2.0597   19.7134 C   0  0  0  0  0  0  0  0  0  0  0  0
   15.6441   -0.8804   20.1527 C   0  0  0  0  0  0  0  0  0  0  0  0
   15.1678   -0.7878   21.4002 F   0  0  0  0  0  0  0  0  0  0  0  0
   15.5577    0.2213   19.3210 C   0  0  0  0  0  0  0  0  0  0  0  0
   16.8382    3.2840   15.8354 C   0  0  2  0  0  0  0  0  0  0  0  0
   15.4831    3.9804   15.7929 C   0  0  0  0  0  0  0  0  0  0  0  0
  2  1  1  6
  2  3  1  0
  3  4  1  0
  4  5  1  0
  5  6  1  0
  6  7  1  0
  7  8  2  0
  7  9  1  0
  9 10  2  0
 10 11  1  0
 11 12  2  0
 12 13  1  0
 13 14  1  0
 13 15  2  0
  6 16  1  0
 16 17  1  6
 16  2  1  0
 15  9  1  0
M  END
>  <HIPPO ID>  (194) 
78092

>  <ref_url>  (194) 
None

>  <ref_pdb>  (194) 
c0300a

>  <inchikey>  (194) 
DSKLWYLUOYOGIS-VHSXEESVSA-N

>  <original SMILES>  (194) 
C[C@@H]1NCCN(C(=O)c2cccc(F)c2)[C@@H]1C

>  <generation_date>  (194) 
None

>  <tags>  (194) 
[]

>  <ref_mols>  (194) 
c0398a,c0585a

>  <alias>  (194) 
None

>  <original ID>  (194) 
DSKLWYLUOYOGIS-VHSXEESVSA-N

>  <exports>  (194) 
['/opt/xchem-fragalysis-2/maxwin/CHIKV_HIPPO/hippo_prod/CHIKV_prod11c_recipes/Recipe_1GJWBFH_poses.sdf', '/opt/xchem-fragalysis-2/maxwin/CHIKV_HIPPO/hippo_prod/CHIKV_prod11c_recipes/Recipe_1GJXK8G_poses.sdf', '/opt/xchem-fragalysis-2/maxwin/CHIKV_HIPPO/hippo_prod/CHIKV_prod11c_recipes/Recipe_1GJXW46_poses.sdf']

>  <method>  (194) 
None

>  <submitter_email>  (194) 
None

>  <submitter_name>  (194) 
None

$$$$
DSKLWYLUOYOGIS-NXEZZACHSA-N
     RDKit          3D

 17 18  0  0  0  0  0  0  0  0999 V2000
   15.9783    2.4810   13.9185 C   0  0  0  0  0  0  0  0  0  0  0  0
   16.2249    2.8915   15.3587 C   0  0  2  0  0  0  0  0  0  0  0  0
   17.1852    4.0959   15.4343 C   0  0  1  0  0  0  0  0  0  0  0  0
   17.0773    4.7801   16.7957 C   0  0  0  0  0  0  0  0  0  0  0  0
   18.5997    3.7975   15.1499 N   0  0  0  0  0  0  0  0  0  0  0  0
   18.9348    2.3682   15.2822 C   0  0  0  0  0  0  0  0  0  0  0  0
   18.1164    1.5758   16.3143 C   0  0  0  0  0  0  0  0  0  0  0  0
   16.6685    1.7397   16.1716 N   0  0  0  0  0  0  0  0  0  0  0  0
   15.8010    1.3523   17.2002 C   0  0  0  0  0  0  0  0  0  0  0  0
   14.8383    2.0486   17.5163 O   0  0  0  0  0  0  0  0  0  0  0  0
   16.0327    0.1511   18.0354 C   0  0  0  0  0  0  0  0  0  0  0  0
   16.6325   -1.0228   17.5745 C   0  0  0  0  0  0  0  0  0  0  0  0
   16.7800   -2.1173   18.4351 C   0  0  0  0  0  0  0  0  0  0  0  0
   16.2956   -2.0521   19.7419 C   0  0  0  0  0  0  0  0  0  0  0  0
   15.6616   -0.8962   20.1755 C   0  0  0  0  0  0  0  0  0  0  0  0
   15.1760   -0.8207   21.4204 F   0  0  0  0  0  0  0  0  0  0  0  0
   15.5273    0.1977   19.3405 C   0  0  0  0  0  0  0  0  0  0  0  0
  2  1  1  6
  2  3  1  0
  3  4  1  1
  3  5  1  0
  5  6  1  0
  6  7  1  0
  7  8  1  0
  8  9  1  0
  9 10  2  0
  9 11  1  0
 11 12  2  0
 12 13  1  0
 13 14  2  0
 14 15  1  0
 15 16  1  0
 15 17  2  0
  8  2  1  0
 17 11  1  0
M  END
>  <HIPPO ID>  (195) 
78093

>  <ref_url>  (195) 
None

>  <ref_pdb>  (195) 
c0300a

>  <inchikey>  (195) 
DSKLWYLUOYOGIS-NXEZZACHSA-N

>  <original SMILES>  (195) 
C[C@@H]1[C@@H](C)NCCN1C(=O)c1cccc(F)c1

>  <generation_date>  (195) 
None

>  <tags>  (195) 
[]

>  <ref_mols>  (195) 
c0398a,c0585a

>  <alias>  (195) 
None

>  <original ID>  (195) 
DSKLWYLUOYOGIS-NXEZZACHSA-N

>  <exports>  (195) 
['/opt/xchem-fragalysis-2/maxwin/CHIKV_HIPPO/hippo_prod/CHIKV_prod11c_recipes/Recipe_1GJWBFH_poses.sdf', '/opt/xchem-fragalysis-2/maxwin/CHIKV_HIPPO/hippo_prod/CHIKV_prod11c_recipes/Recipe_1GJXK8G_poses.sdf', '/opt/xchem-fragalysis-2/maxwin/CHIKV_HIPPO/hippo_prod/CHIKV_prod11c_recipes/Recipe_1GJXW46_poses.sdf']

>  <method>  (195) 
None

>  <submitter_email>  (195) 
None

>  <submitter_name>  (195) 
None

$$$$
DSKLWYLUOYOGIS-UWVGGRQHSA-N
     RDKit          3D

 17 18  0  0  0  0  0  0  0  0999 V2000
   16.4631    2.7373   13.5306 C   0  0  0  0  0  0  0  0  0  0  0  0
   16.8892    3.5206   14.7573 C   0  0  2  0  0  0  0  0  0  0  0  0
   18.3584    3.5389   14.9225 N   0  0  0  0  0  0  0  0  0  0  0  0
   18.8434    2.3292   15.6129 C   0  0  0  0  0  0  0  0  0  0  0  0
   18.1345    2.0674   16.9535 C   0  0  0  0  0  0  0  0  0  0  0  0
   16.6908    1.9529   16.7706 N   0  0  0  0  0  0  0  0  0  0  0  0
   16.1782    0.6714   16.5957 C   0  0  0  0  0  0  0  0  0  0  0  0
   15.7181    0.2386   15.5527 O   0  0  0  0  0  0  0  0  0  0  0  0
   16.1920   -0.2016   17.7843 C   0  0  0  0  0  0  0  0  0  0  0  0
   16.8438   -1.4380   17.7235 C   0  0  0  0  0  0  0  0  0  0  0  0
   16.8363   -2.2772   18.8373 C   0  0  0  0  0  0  0  0  0  0  0  0
   16.1573   -1.8866   19.9916 C   0  0  0  0  0  0  0  0  0  0  0  0
   15.4816   -0.6686   20.0209 C   0  0  0  0  0  0  0  0  0  0  0  0
   14.8075   -0.3169   21.1248 F   0  0  0  0  0  0  0  0  0  0  0  0
   15.4967    0.1870   18.9295 C   0  0  0  0  0  0  0  0  0  0  0  0
   16.0922    3.0510   16.0023 C   0  0  1  0  0  0  0  0  0  0  0  0
   15.8925    4.2356   16.9263 C   0  0  0  0  0  0  0  0  0  0  0  0
  2  1  1  6
  2  3  1  0
  3  4  1  0
  4  5  1  0
  5  6  1  0
  6  7  1  0
  7  8  2  0
  7  9  1  0
  9 10  2  0
 10 11  1  0
 11 12  2  0
 12 13  1  0
 13 14  1  0
 13 15  2  0
  6 16  1  0
 16 17  1  1
 16  2  1  0
 15  9  1  0
M  END
>  <HIPPO ID>  (196) 
78094

>  <ref_url>  (196) 
None

>  <ref_pdb>  (196) 
c0300a

>  <inchikey>  (196) 
DSKLWYLUOYOGIS-UWVGGRQHSA-N

>  <original SMILES>  (196) 
C[C@@H]1NCCN(C(=O)c2cccc(F)c2)[C@H]1C

>  <generation_date>  (196) 
None

>  <tags>  (196) 
[]

>  <ref_mols>  (196) 
c0398a,c0585a

>  <alias>  (196) 
None

>  <original ID>  (196) 
DSKLWYLUOYOGIS-UWVGGRQHSA-N

>  <exports>  (196) 
['/opt/xchem-fragalysis-2/maxwin/CHIKV_HIPPO/hippo_prod/CHIKV_prod11c_recipes/Recipe_1GJWBFH_poses.sdf', '/opt/xchem-fragalysis-2/maxwin/CHIKV_HIPPO/hippo_prod/CHIKV_prod11c_recipes/Recipe_1GJXK8G_poses.sdf', '/opt/xchem-fragalysis-2/maxwin/CHIKV_HIPPO/hippo_prod/CHIKV_prod11c_recipes/Recipe_1GJXW46_poses.sdf']

>  <method>  (196) 
None

>  <submitter_email>  (196) 
None

>  <submitter_name>  (196) 
None

$$$$
DSKLWYLUOYOGIS-NXEZZACHSA-N
     RDKit          3D

 17 18  0  0  0  0  0  0  0  0999 V2000
   16.4795    4.8076   16.9419 C   0  0  0  0  0  0  0  0  0  0  0  0
   16.9637    4.1013   15.6744 C   0  0  1  0  0  0  0  0  0  0  0  0
   18.4415    4.0511   15.6352 N   0  0  0  0  0  0  0  0  0  0  0  0
   18.9780    2.7077   15.9145 C   0  0  0  0  0  0  0  0  0  0  0  0
   18.1373    1.8674   16.8930 C   0  0  0  0  0  0  0  0  0  0  0  0
   16.7621    1.7018   16.4325 N   0  0  0  0  0  0  0  0  0  0  0  0
   16.1411    0.4612   16.5290 C   0  0  0  0  0  0  0  0  0  0  0  0
   15.5100   -0.0899   15.6404 O   0  0  0  0  0  0  0  0  0  0  0  0
   16.2432   -0.2743   17.7977 C   0  0  0  0  0  0  0  0  0  0  0  0
   16.9558   -1.4782   17.8366 C   0  0  0  0  0  0  0  0  0  0  0  0
   16.9498   -2.2456   19.0004 C   0  0  0  0  0  0  0  0  0  0  0  0
   16.2134   -1.8173   20.1050 C   0  0  0  0  0  0  0  0  0  0  0  0
   15.4818   -0.6330   20.0359 C   0  0  0  0  0  0  0  0  0  0  0  0
   14.7502   -0.2525   21.0927 F   0  0  0  0  0  0  0  0  0  0  0  0
   15.4895    0.1512   18.8912 C   0  0  0  0  0  0  0  0  0  0  0  0
   16.2456    2.7323   15.5091 C   0  0  2  0  0  0  0  0  0  0  0  0
   16.2785    2.3361   14.0434 C   0  0  0  0  0  0  0  0  0  0  0  0
  2  1  1  1
  2  3  1  0
  3  4  1  0
  4  5  1  0
  5  6  1  0
  6  7  1  0
  7  8  2  0
  7  9  1  0
  9 10  2  0
 10 11  1  0
 11 12  2  0
 12 13  1  0
 13 14  1  0
 13 15  2  0
  6 16  1  0
 16 17  1  6
 16  2  1  0
 15  9  1  0
M  END
>  <HIPPO ID>  (197) 
78095

>  <ref_url>  (197) 
None

>  <ref_pdb>  (197) 
c0300a

>  <inchikey>  (197) 
DSKLWYLUOYOGIS-NXEZZACHSA-N

>  <original SMILES>  (197) 
C[C@@H]1[C@@H](C)NCCN1C(=O)c1cccc(F)c1

>  <generation_date>  (197) 
None

>  <tags>  (197) 
[]

>  <ref_mols>  (197) 
c0398a,c0585a

>  <alias>  (197) 
None

>  <original ID>  (197) 
DSKLWYLUOYOGIS-NXEZZACHSA-N

>  <exports>  (197) 
['/opt/xchem-fragalysis-2/maxwin/CHIKV_HIPPO/hippo_prod/CHIKV_prod11c_recipes/Recipe_1GJWBFH_poses.sdf', '/opt/xchem-fragalysis-2/maxwin/CHIKV_HIPPO/hippo_prod/CHIKV_prod11c_recipes/Recipe_1GJXK8G_poses.sdf', '/opt/xchem-fragalysis-2/maxwin/CHIKV_HIPPO/hippo_prod/CHIKV_prod11c_recipes/Recipe_1GJXW46_poses.sdf']

>  <method>  (197) 
None

>  <submitter_email>  (197) 
None

>  <submitter_name>  (197) 
None

$$$$
ODEOQBGLGAKHSC-JTQLQIEISA-N
     RDKit          3D

 17 18  0  0  0  0  0  0  0  0999 V2000
   17.9931   -1.7802   16.9779 C   0  0  0  0  0  0  0  0  0  0  0  0
   17.0546   -1.2877   18.0376 C   0  0  0  0  0  0  0  0  0  0  0  0
   16.9583   -1.9983   19.2417 C   0  0  0  0  0  0  0  0  0  0  0  0
   16.0588   -1.5935   20.2254 C   0  0  0  0  0  0  0  0  0  0  0  0
   15.2326   -0.4970   19.9996 C   0  0  0  0  0  0  0  0  0  0  0  0
   14.3725   -0.1239   20.9570 F   0  0  0  0  0  0  0  0  0  0  0  0
   15.2862    0.2130   18.8087 C   0  0  0  0  0  0  0  0  0  0  0  0
   16.2082   -0.1780   17.8360 C   0  0  0  0  0  0  0  0  0  0  0  0
   16.1974    0.5229   16.5381 C   0  0  0  0  0  0  0  0  0  0  0  0
   15.6269   -0.0783   15.6373 O   0  0  0  0  0  0  0  0  0  0  0  0
   16.8794    1.7512   16.4038 N   0  0  0  0  0  0  0  0  0  0  0  0
   18.0672    1.9578   17.2391 C   0  0  0  0  0  0  0  0  0  0  0  0
   18.6665    3.3662   17.1460 C   0  0  0  0  0  0  0  0  0  0  0  0
   18.9151    3.7884   15.7657 N   0  0  0  0  0  0  0  0  0  0  0  0
   17.6498    3.7410   15.0350 C   0  0  0  0  0  0  0  0  0  0  0  0
   16.9789    2.3424   15.0423 C   0  0  2  0  0  0  0  0  0  0  0  0
   15.6317    2.5473   14.3548 C   0  0  0  0  0  0  0  0  0  0  0  0
  1  2  1  0
  2  3  2  0
  3  4  1  0
  4  5  2  0
  5  6  1  0
  5  7  1  0
  7  8  2  0
  8  9  1  0
  9 10  2  0
  9 11  1  0
 11 12  1  0
 12 13  1  0
 13 14  1  0
 14 15  1  0
 15 16  1  0
 16 17  1  1
  8  2  1  0
 16 11  1  0
M  END
>  <HIPPO ID>  (198) 
78119

>  <ref_url>  (198) 
None

>  <ref_pdb>  (198) 
c0300a

>  <inchikey>  (198) 
ODEOQBGLGAKHSC-JTQLQIEISA-N

>  <original SMILES>  (198) 
Cc1ccc(F)cc1C(=O)N1CCNC[C@@H]1C

>  <generation_date>  (198) 
None

>  <tags>  (198) 
[]

>  <ref_mols>  (198) 
c0398a,c0585a

>  <alias>  (198) 
None

>  <original ID>  (198) 
ODEOQBGLGAKHSC-JTQLQIEISA-N

>  <exports>  (198) 
['/opt/xchem-fragalysis-2/maxwin/CHIKV_HIPPO/hippo_prod/CHIKV_prod11c_recipes/Recipe_1GJXK8G_poses.sdf', '/opt/xchem-fragalysis-2/maxwin/CHIKV_HIPPO/hippo_prod/CHIKV_prod11c_recipes/Recipe_1GJXW46_poses.sdf']

>  <method>  (198) 
None

>  <submitter_email>  (198) 
None

>  <submitter_name>  (198) 
None

$$$$
ODEOQBGLGAKHSC-SNVBAGLBSA-N
     RDKit          3D

 17 18  0  0  0  0  0  0  0  0999 V2000
   18.1179   -1.7727   16.9114 C   0  0  0  0  0  0  0  0  0  0  0  0
   17.1543   -1.3129   17.9614 C   0  0  0  0  0  0  0  0  0  0  0  0
   17.0466   -2.0428   19.1543 C   0  0  0  0  0  0  0  0  0  0  0  0
   16.1288   -1.6637   20.1328 C   0  0  0  0  0  0  0  0  0  0  0  0
   15.2952   -0.5728   19.9127 C   0  0  0  0  0  0  0  0  0  0  0  0
   14.4231   -0.2154   20.8653 F   0  0  0  0  0  0  0  0  0  0  0  0
   15.3579    0.1513   18.7308 C   0  0  0  0  0  0  0  0  0  0  0  0
   16.3005   -0.2115   17.7639 C   0  0  0  0  0  0  0  0  0  0  0  0
   16.2788    0.5185   16.4809 C   0  0  0  0  0  0  0  0  0  0  0  0
   15.5741    0.0155   15.6176 O   0  0  0  0  0  0  0  0  0  0  0  0
   17.0778    1.6568   16.3119 N   0  0  0  0  0  0  0  0  0  0  0  0
   18.0901    2.0136   17.3046 C   0  0  0  0  0  0  0  0  0  0  0  0
   19.2137    2.8758   16.7100 C   0  0  0  0  0  0  0  0  0  0  0  0
   18.6955    4.1087   16.0987 N   0  0  0  0  0  0  0  0  0  0  0  0
   17.7909    3.7197   15.0160 C   0  0  0  0  0  0  0  0  0  0  0  0
   16.6304    2.7791   15.4447 C   0  0  1  0  0  0  0  0  0  0  0  0
   15.9297    2.4182   14.1467 C   0  0  0  0  0  0  0  0  0  0  0  0
  1  2  1  0
  2  3  2  0
  3  4  1  0
  4  5  2  0
  5  6  1  0
  5  7  1  0
  7  8  2  0
  8  9  1  0
  9 10  2  0
  9 11  1  0
 11 12  1  0
 12 13  1  0
 13 14  1  0
 14 15  1  0
 15 16  1  0
 16 17  1  6
  8  2  1  0
 16 11  1  0
M  END
>  <HIPPO ID>  (199) 
78120

>  <ref_url>  (199) 
None

>  <ref_pdb>  (199) 
c0300a

>  <inchikey>  (199) 
ODEOQBGLGAKHSC-SNVBAGLBSA-N

>  <original SMILES>  (199) 
Cc1ccc(F)cc1C(=O)N1CCNC[C@H]1C

>  <generation_date>  (199) 
None

>  <tags>  (199) 
[]

>  <ref_mols>  (199) 
c0398a,c0585a

>  <alias>  (199) 
None

>  <original ID>  (199) 
ODEOQBGLGAKHSC-SNVBAGLBSA-N

>  <exports>  (199) 
['/opt/xchem-fragalysis-2/maxwin/CHIKV_HIPPO/hippo_prod/CHIKV_prod11c_recipes/Recipe_1GJXK8G_poses.sdf', '/opt/xchem-fragalysis-2/maxwin/CHIKV_HIPPO/hippo_prod/CHIKV_prod11c_recipes/Recipe_1GJXW46_poses.sdf']

>  <method>  (199) 
None

>  <submitter_email>  (199) 
None

>  <submitter_name>  (199) 
None

$$$$
MEOXWDYTCBKLHA-MRVPVSSYSA-N
     RDKit          3D

 17 18  0  0  0  0  0  0  0  0999 V2000
   16.1976    2.2704   14.1135 C   0  0  0  0  0  0  0  0  0  0  0  0
   16.1995    2.5839   15.5946 C   0  0  2  0  0  0  0  0  0  0  0  0
   16.8178    3.9815   15.7038 C   0  0  0  0  0  0  0  0  0  0  0  0
   16.1967    4.9934   15.3850 O   0  0  0  0  0  0  0  0  0  0  0  0
   18.1450    4.0458   16.0410 N   0  0  0  0  0  0  0  0  0  0  0  0
   18.8870    2.8582   16.4018 C   0  0  0  0  0  0  0  0  0  0  0  0
   18.0043    1.8878   17.1920 C   0  0  0  0  0  0  0  0  0  0  0  0
   16.8156    1.5331   16.4252 N   0  0  0  0  0  0  0  0  0  0  0  0
   16.1502    0.3232   16.5676 C   0  0  0  0  0  0  0  0  0  0  0  0
   15.4770   -0.2140   15.7007 O   0  0  0  0  0  0  0  0  0  0  0  0
   16.2486   -0.3941   17.8422 C   0  0  0  0  0  0  0  0  0  0  0  0
   16.9909   -1.5768   17.9109 C   0  0  0  0  0  0  0  0  0  0  0  0
   16.9954   -2.3140   19.0934 C   0  0  0  0  0  0  0  0  0  0  0  0
   16.2476   -1.8721   20.1858 C   0  0  0  0  0  0  0  0  0  0  0  0
   15.4903   -0.7065   20.0855 C   0  0  0  0  0  0  0  0  0  0  0  0
   14.7571   -0.3061   21.1332 F   0  0  0  0  0  0  0  0  0  0  0  0
   15.4787    0.0427   18.9198 C   0  0  0  0  0  0  0  0  0  0  0  0
  2  1  1  6
  2  3  1  0
  3  4  2  0
  3  5  1  0
  5  6  1  0
  6  7  1  0
  7  8  1  0
  8  9  1  0
  9 10  2  0
  9 11  1  0
 11 12  2  0
 12 13  1  0
 13 14  2  0
 14 15  1  0
 15 16  1  0
 15 17  2  0
  8  2  1  0
 17 11  1  0
M  END
>  <HIPPO ID>  (200) 
78121

>  <ref_url>  (200) 
None

>  <ref_pdb>  (200) 
c0300a

>  <inchikey>  (200) 
MEOXWDYTCBKLHA-MRVPVSSYSA-N

>  <original SMILES>  (200) 
C[C@@H]1C(=O)NCCN1C(=O)c1cccc(F)c1

>  <generation_date>  (200) 
None

>  <tags>  (200) 
[]

>  <ref_mols>  (200) 
c0398a,c0585a

>  <alias>  (200) 
None

>  <original ID>  (200) 
MEOXWDYTCBKLHA-MRVPVSSYSA-N

>  <exports>  (200) 
['/opt/xchem-fragalysis-2/maxwin/CHIKV_HIPPO/hippo_prod/CHIKV_prod11c_recipes/Recipe_1GJWBFH_poses.sdf', '/opt/xchem-fragalysis-2/maxwin/CHIKV_HIPPO/hippo_prod/CHIKV_prod11c_recipes/Recipe_1GJXK8G_poses.sdf', '/opt/xchem-fragalysis-2/maxwin/CHIKV_HIPPO/hippo_prod/CHIKV_prod11c_recipes/Recipe_1GJXW46_poses.sdf']

>  <method>  (200) 
None

>  <submitter_email>  (200) 
None

>  <submitter_name>  (200) 
None

$$$$
MEOXWDYTCBKLHA-MRVPVSSYSA-N
     RDKit          3D

 17 18  0  0  0  0  0  0  0  0999 V2000
   16.0806    2.2767   14.1145 C   0  0  0  0  0  0  0  0  0  0  0  0
   16.1946    2.5520   15.5993 C   0  0  2  0  0  0  0  0  0  0  0  0
   16.8861    3.9173   15.6959 C   0  0  0  0  0  0  0  0  0  0  0  0
   16.2850    4.9701   15.4939 O   0  0  0  0  0  0  0  0  0  0  0  0
   18.2477    3.9032   15.8690 N   0  0  0  0  0  0  0  0  0  0  0  0
   18.9544    2.6658   16.1200 C   0  0  0  0  0  0  0  0  0  0  0  0
   18.1121    1.7371   16.9997 C   0  0  0  0  0  0  0  0  0  0  0  0
   16.8286    1.4626   16.3645 N   0  0  0  0  0  0  0  0  0  0  0  0
   16.1402    0.2717   16.5378 C   0  0  0  0  0  0  0  0  0  0  0  0
   15.4332   -0.2606   15.6958 O   0  0  0  0  0  0  0  0  0  0  0  0
   16.2547   -0.4276   17.8211 C   0  0  0  0  0  0  0  0  0  0  0  0
   17.0002   -1.6071   17.9014 C   0  0  0  0  0  0  0  0  0  0  0  0
   17.0091   -2.3309   19.0923 C   0  0  0  0  0  0  0  0  0  0  0  0
   16.2613   -1.8797   20.1811 C   0  0  0  0  0  0  0  0  0  0  0  0
   15.5007   -0.7174   20.0697 C   0  0  0  0  0  0  0  0  0  0  0  0
   14.7659   -0.3096   21.1136 F   0  0  0  0  0  0  0  0  0  0  0  0
   15.4861    0.0193   18.8960 C   0  0  0  0  0  0  0  0  0  0  0  0
  2  1  1  6
  2  3  1  0
  3  4  2  0
  3  5  1  0
  5  6  1  0
  6  7  1  0
  7  8  1  0
  8  9  1  0
  9 10  2  0
  9 11  1  0
 11 12  2  0
 12 13  1  0
 13 14  2  0
 14 15  1  0
 15 16  1  0
 15 17  2  0
  8  2  1  0
 17 11  1  0
M  END
>  <HIPPO ID>  (201) 
78122

>  <ref_url>  (201) 
None

>  <ref_pdb>  (201) 
c0300a

>  <inchikey>  (201) 
MEOXWDYTCBKLHA-MRVPVSSYSA-N

>  <original SMILES>  (201) 
C[C@@H]1C(=O)NCCN1C(=O)c1cccc(F)c1

>  <generation_date>  (201) 
None

>  <tags>  (201) 
[]

>  <ref_mols>  (201) 
c0398a,c0585a

>  <alias>  (201) 
None

>  <original ID>  (201) 
MEOXWDYTCBKLHA-MRVPVSSYSA-N

>  <exports>  (201) 
['/opt/xchem-fragalysis-2/maxwin/CHIKV_HIPPO/hippo_prod/CHIKV_prod11c_recipes/Recipe_1GJWBFH_poses.sdf', '/opt/xchem-fragalysis-2/maxwin/CHIKV_HIPPO/hippo_prod/CHIKV_prod11c_recipes/Recipe_1GJXK8G_poses.sdf', '/opt/xchem-fragalysis-2/maxwin/CHIKV_HIPPO/hippo_prod/CHIKV_prod11c_recipes/Recipe_1GJXW46_poses.sdf']

>  <method>  (201) 
None

>  <submitter_email>  (201) 
None

>  <submitter_name>  (201) 
None

$$$$
LHAFZVNXZNWVDS-SSDOTTSWSA-N
     RDKit          3D

 18 19  0  0  0  0  0  0  0  0999 V2000
   15.9804    2.5345   14.2496 C   0  0  0  0  0  0  0  0  0  0  0  0
   16.7225    2.9850   15.5018 C   0  0  2  0  0  0  0  0  0  0  0  0
   17.9725    3.7844   15.0842 C   0  0  0  0  0  0  0  0  0  0  0  0
   19.0564    2.9033   14.6405 N   0  0  0  0  0  0  0  0  0  0  0  0
   19.4361    1.9721   15.7165 C   0  0  0  0  0  0  0  0  0  0  0  0
   18.4205    1.8099   16.8635 C   0  0  0  0  0  0  0  0  0  0  0  0
   17.0427    1.8235   16.3734 N   0  0  0  0  0  0  0  0  0  0  0  0
   15.9821    1.3743   17.1744 C   0  0  0  0  0  0  0  0  0  0  0  0
   14.9434    2.0274   17.2400 O   0  0  0  0  0  0  0  0  0  0  0  0
   16.0989    0.2019   18.0815 C   0  0  0  0  0  0  0  0  0  0  0  0
   15.3943    0.3367   19.2897 C   0  0  0  0  0  0  0  0  0  0  0  0
   15.4694   -0.6510   20.2516 C   0  0  0  0  0  0  0  0  0  0  0  0
   14.8464   -0.4643   21.4215 F   0  0  0  0  0  0  0  0  0  0  0  0
   16.2106   -1.7955   20.0176 C   0  0  0  0  0  0  0  0  0  0  0  0
   16.3200   -2.7310   20.9663 F   0  0  0  0  0  0  0  0  0  0  0  0
   16.8721   -1.9736   18.8086 C   0  0  0  0  0  0  0  0  0  0  0  0
   16.8483   -0.9673   17.8320 C   0  0  0  0  0  0  0  0  0  0  0  0
   17.4395   -1.2528   16.5936 N   0  0  0  0  0  0  0  0  0  0  0  0
  2  1  1  6
  2  3  1  0
  3  4  1  0
  4  5  1  0
  5  6  1  0
  6  7  1  0
  7  8  1  0
  8  9  2  0
  8 10  1  0
 10 11  2  0
 11 12  1  0
 12 13  1  0
 12 14  2  0
 14 15  1  0
 14 16  1  0
 16 17  2  0
 17 18  1  0
  7  2  1  0
 17 10  1  0
M  END
>  <HIPPO ID>  (202) 
78264

>  <ref_url>  (202) 
None

>  <ref_pdb>  (202) 
c0300a

>  <inchikey>  (202) 
LHAFZVNXZNWVDS-SSDOTTSWSA-N

>  <original SMILES>  (202) 
C[C@@H]1CNCCN1C(=O)c1cc(F)c(F)cc1N

>  <generation_date>  (202) 
None

>  <tags>  (202) 
[]

>  <ref_mols>  (202) 
c0398a,c0585a

>  <alias>  (202) 
None

>  <original ID>  (202) 
LHAFZVNXZNWVDS-SSDOTTSWSA-N

>  <exports>  (202) 
['/opt/xchem-fragalysis-2/maxwin/CHIKV_HIPPO/hippo_prod/CHIKV_prod11c_recipes/Recipe_1GJWBFH_poses.sdf', '/opt/xchem-fragalysis-2/maxwin/CHIKV_HIPPO/hippo_prod/CHIKV_prod11c_recipes/Recipe_1GJXK8G_poses.sdf', '/opt/xchem-fragalysis-2/maxwin/CHIKV_HIPPO/hippo_prod/CHIKV_prod11c_recipes/Recipe_1GJXW46_poses.sdf']

>  <method>  (202) 
None

>  <submitter_email>  (202) 
None

>  <submitter_name>  (202) 
None

$$$$
LHAFZVNXZNWVDS-SSDOTTSWSA-N
     RDKit          3D

 18 19  0  0  0  0  0  0  0  0999 V2000
   16.3196    2.4449   14.0785 C   0  0  0  0  0  0  0  0  0  0  0  0
   16.3156    2.7546   15.5659 C   0  0  2  0  0  0  0  0  0  0  0  0
   17.0757    4.0757   15.8270 C   0  0  0  0  0  0  0  0  0  0  0  0
   18.5295    3.9907   15.5986 N   0  0  0  0  0  0  0  0  0  0  0  0
   19.0658    2.6770   16.0080 C   0  0  0  0  0  0  0  0  0  0  0  0
   18.1694    1.8749   16.9771 C   0  0  0  0  0  0  0  0  0  0  0  0
   16.8375    1.6672   16.4145 N   0  0  0  0  0  0  0  0  0  0  0  0
   16.1752    0.4496   16.4932 C   0  0  0  0  0  0  0  0  0  0  0  0
   15.4947   -0.0423   15.6073 O   0  0  0  0  0  0  0  0  0  0  0  0
   16.2588   -0.3084   17.7483 C   0  0  0  0  0  0  0  0  0  0  0  0
   15.3782    0.0803   18.7662 C   0  0  0  0  0  0  0  0  0  0  0  0
   15.3574   -0.6468   19.9425 C   0  0  0  0  0  0  0  0  0  0  0  0
   14.5503   -0.2660   20.9426 F   0  0  0  0  0  0  0  0  0  0  0  0
   16.1743   -1.7600   20.0893 C   0  0  0  0  0  0  0  0  0  0  0  0
   16.1607   -2.4521   21.2342 F   0  0  0  0  0  0  0  0  0  0  0  0
   17.0283   -2.1640   19.0660 C   0  0  0  0  0  0  0  0  0  0  0  0
   17.1169   -1.4172   17.8882 C   0  0  0  0  0  0  0  0  0  0  0  0
   17.9137   -1.9036   16.8383 N   0  0  0  0  0  0  0  0  0  0  0  0
  2  1  1  6
  2  3  1  0
  3  4  1  0
  4  5  1  0
  5  6  1  0
  6  7  1  0
  7  8  1  0
  8  9  2  0
  8 10  1  0
 10 11  2  0
 11 12  1  0
 12 13  1  0
 12 14  2  0
 14 15  1  0
 14 16  1  0
 16 17  2  0
 17 18  1  0
  7  2  1  0
 17 10  1  0
M  END
>  <HIPPO ID>  (203) 
78265

>  <ref_url>  (203) 
None

>  <ref_pdb>  (203) 
c0300a

>  <inchikey>  (203) 
LHAFZVNXZNWVDS-SSDOTTSWSA-N

>  <original SMILES>  (203) 
C[C@@H]1CNCCN1C(=O)c1cc(F)c(F)cc1N

>  <generation_date>  (203) 
None

>  <tags>  (203) 
[]

>  <ref_mols>  (203) 
c0398a,c0585a

>  <alias>  (203) 
None

>  <original ID>  (203) 
LHAFZVNXZNWVDS-SSDOTTSWSA-N

>  <exports>  (203) 
['/opt/xchem-fragalysis-2/maxwin/CHIKV_HIPPO/hippo_prod/CHIKV_prod11c_recipes/Recipe_1GJWBFH_poses.sdf', '/opt/xchem-fragalysis-2/maxwin/CHIKV_HIPPO/hippo_prod/CHIKV_prod11c_recipes/Recipe_1GJXK8G_poses.sdf', '/opt/xchem-fragalysis-2/maxwin/CHIKV_HIPPO/hippo_prod/CHIKV_prod11c_recipes/Recipe_1GJXW46_poses.sdf']

>  <method>  (203) 
None

>  <submitter_email>  (203) 
None

>  <submitter_name>  (203) 
None

$$$$
JWBMRGQAOZOTNU-SECBINFHSA-N
     RDKit          3D

 18 19  0  0  0  0  0  0  0  0999 V2000
   18.9695   -2.2721   17.0351 C   0  0  0  0  0  0  0  0  0  0  0  0
   17.7219   -1.6813   16.7023 O   0  0  0  0  0  0  0  0  0  0  0  0
   16.9404   -1.3321   17.7715 C   0  0  0  0  0  0  0  0  0  0  0  0
   16.8436   -2.1161   18.9257 C   0  0  0  0  0  0  0  0  0  0  0  0
   16.0240   -1.7094   19.9790 C   0  0  0  0  0  0  0  0  0  0  0  0
   15.2796   -0.5397   19.8676 C   0  0  0  0  0  0  0  0  0  0  0  0
   14.4934   -0.1694   20.8879 F   0  0  0  0  0  0  0  0  0  0  0  0
   15.3463    0.2468   18.7259 C   0  0  0  0  0  0  0  0  0  0  0  0
   16.1880   -0.1486   17.6815 C   0  0  0  0  0  0  0  0  0  0  0  0
   16.2304    0.6855   16.4602 C   0  0  0  0  0  0  0  0  0  0  0  0
   15.6636    0.2502   15.4710 O   0  0  0  0  0  0  0  0  0  0  0  0
   16.8846    1.9206   16.5256 N   0  0  0  0  0  0  0  0  0  0  0  0
   18.1623    1.9961   17.2397 C   0  0  0  0  0  0  0  0  0  0  0  0
   19.2671    2.6990   16.4097 C   0  0  0  0  0  0  0  0  0  0  0  0
   19.2083    2.4113   14.9715 N   0  0  0  0  0  0  0  0  0  0  0  0
   17.9003    2.7975   14.4116 C   0  0  0  0  0  0  0  0  0  0  0  0
   16.7718    2.9221   15.4470 C   0  0  1  0  0  0  0  0  0  0  0  0
   15.4393    3.0348   14.7301 C   0  0  0  0  0  0  0  0  0  0  0  0
  1  2  1  0
  2  3  1  0
  3  4  2  0
  4  5  1  0
  5  6  2  0
  6  7  1  0
  6  8  1  0
  8  9  2  0
  9 10  1  0
 10 11  2  0
 10 12  1  0
 12 13  1  0
 13 14  1  0
 14 15  1  0
 15 16  1  0
 16 17  1  0
 17 18  1  6
  9  3  1  0
 17 12  1  0
M  END
>  <HIPPO ID>  (204) 
78358

>  <ref_url>  (204) 
None

>  <ref_pdb>  (204) 
c0300a

>  <inchikey>  (204) 
JWBMRGQAOZOTNU-SECBINFHSA-N

>  <original SMILES>  (204) 
COc1ccc(F)cc1C(=O)N1CCNC[C@H]1C

>  <generation_date>  (204) 
None

>  <tags>  (204) 
[]

>  <ref_mols>  (204) 
c0398a,c0585a

>  <alias>  (204) 
None

>  <original ID>  (204) 
JWBMRGQAOZOTNU-SECBINFHSA-N

>  <exports>  (204) 
['/opt/xchem-fragalysis-2/maxwin/CHIKV_HIPPO/hippo_prod/CHIKV_prod11c_recipes/Recipe_1GJWBFH_poses.sdf', '/opt/xchem-fragalysis-2/maxwin/CHIKV_HIPPO/hippo_prod/CHIKV_prod11c_recipes/Recipe_1GJXK8G_poses.sdf', '/opt/xchem-fragalysis-2/maxwin/CHIKV_HIPPO/hippo_prod/CHIKV_prod11c_recipes/Recipe_1GJXW46_poses.sdf']

>  <method>  (204) 
None

>  <submitter_email>  (204) 
None

>  <submitter_name>  (204) 
None

$$$$
JWBMRGQAOZOTNU-SECBINFHSA-N
     RDKit          3D

 18 19  0  0  0  0  0  0  0  0999 V2000
   18.4897   -2.4279   16.6978 C   0  0  0  0  0  0  0  0  0  0  0  0
   18.3057   -1.1144   17.1871 O   0  0  0  0  0  0  0  0  0  0  0  0
   17.2634   -1.0171   18.0705 C   0  0  0  0  0  0  0  0  0  0  0  0
   17.2149   -1.7758   19.2427 C   0  0  0  0  0  0  0  0  0  0  0  0
   16.1984   -1.5486   20.1723 C   0  0  0  0  0  0  0  0  0  0  0  0
   15.2448   -0.5633   19.9283 C   0  0  0  0  0  0  0  0  0  0  0  0
   14.3115   -0.3103   20.8543 F   0  0  0  0  0  0  0  0  0  0  0  0
   15.2634    0.1819   18.7600 C   0  0  0  0  0  0  0  0  0  0  0  0
   16.2924   -0.0374   17.8435 C   0  0  0  0  0  0  0  0  0  0  0  0
   16.2374    0.6740   16.5616 C   0  0  0  0  0  0  0  0  0  0  0  0
   15.6191    0.1237   15.6622 O   0  0  0  0  0  0  0  0  0  0  0  0
   16.8475    1.9321   16.4936 N   0  0  0  0  0  0  0  0  0  0  0  0
   18.3096    1.9429   16.6054 C   0  0  0  0  0  0  0  0  0  0  0  0
   18.9202    3.3556   16.6479 C   0  0  0  0  0  0  0  0  0  0  0  0
   18.3889    4.2847   15.6353 N   0  0  0  0  0  0  0  0  0  0  0  0
   16.9208    4.2971   15.7400 C   0  0  0  0  0  0  0  0  0  0  0  0
   16.3128    2.8967   15.5163 C   0  0  1  0  0  0  0  0  0  0  0  0
   16.4882    2.4942   14.0583 C   0  0  0  0  0  0  0  0  0  0  0  0
  1  2  1  0
  2  3  1  0
  3  4  2  0
  4  5  1  0
  5  6  2  0
  6  7  1  0
  6  8  1  0
  8  9  2  0
  9 10  1  0
 10 11  2  0
 10 12  1  0
 12 13  1  0
 13 14  1  0
 14 15  1  0
 15 16  1  0
 16 17  1  0
 17 18  1  6
  9  3  1  0
 17 12  1  0
M  END
>  <HIPPO ID>  (205) 
78359

>  <ref_url>  (205) 
None

>  <ref_pdb>  (205) 
c0300a

>  <inchikey>  (205) 
JWBMRGQAOZOTNU-SECBINFHSA-N

>  <original SMILES>  (205) 
COc1ccc(F)cc1C(=O)N1CCNC[C@H]1C

>  <generation_date>  (205) 
None

>  <tags>  (205) 
[]

>  <ref_mols>  (205) 
c0398a,c0585a

>  <alias>  (205) 
None

>  <original ID>  (205) 
JWBMRGQAOZOTNU-SECBINFHSA-N

>  <exports>  (205) 
['/opt/xchem-fragalysis-2/maxwin/CHIKV_HIPPO/hippo_prod/CHIKV_prod11c_recipes/Recipe_1GJWBFH_poses.sdf', '/opt/xchem-fragalysis-2/maxwin/CHIKV_HIPPO/hippo_prod/CHIKV_prod11c_recipes/Recipe_1GJXK8G_poses.sdf', '/opt/xchem-fragalysis-2/maxwin/CHIKV_HIPPO/hippo_prod/CHIKV_prod11c_recipes/Recipe_1GJXW46_poses.sdf']

>  <method>  (205) 
None

>  <submitter_email>  (205) 
None

>  <submitter_name>  (205) 
None

$$$$
LILGELNVMFEYFO-SECBINFHSA-N
     RDKit          3D

 18 19  0  0  0  0  0  0  0  0999 V2000
   15.4099   -0.8595   16.0015 C   0  0  0  0  0  0  0  0  0  0  0  0
   16.6986   -0.9588   16.6214 O   0  0  0  0  0  0  0  0  0  0  0  0
   16.5239   -0.7942   17.9663 C   0  0  0  0  0  0  0  0  0  0  0  0
   16.7057   -1.9206   18.7732 C   0  0  0  0  0  0  0  0  0  0  0  0
   16.3031   -1.8762   20.1046 C   0  0  0  0  0  0  0  0  0  0  0  0
   15.7381   -0.7081   20.6041 C   0  0  0  0  0  0  0  0  0  0  0  0
   15.2573   -0.6828   21.8523 F   0  0  0  0  0  0  0  0  0  0  0  0
   15.6291    0.4344   19.8272 C   0  0  0  0  0  0  0  0  0  0  0  0
   16.0537    0.4094   18.4985 C   0  0  0  0  0  0  0  0  0  0  0  0
   15.7530    1.6013   17.6799 C   0  0  0  0  0  0  0  0  0  0  0  0
   14.6755    2.1466   17.9125 O   0  0  0  0  0  0  0  0  0  0  0  0
   16.6313    2.1131   16.7223 N   0  0  0  0  0  0  0  0  0  0  0  0
   18.0792    1.8949   16.7326 C   0  0  0  0  0  0  0  0  0  0  0  0
   18.7350    2.2587   15.3864 C   0  0  0  0  0  0  0  0  0  0  0  0
   18.3907    3.6214   14.9289 N   0  0  0  0  0  0  0  0  0  0  0  0
   16.9223    3.6915   14.7767 C   0  0  2  0  0  0  0  0  0  0  0  0
   16.5297    5.0956   14.3190 C   0  0  0  0  0  0  0  0  0  0  0  0
   16.1876    3.3526   16.0867 C   0  0  0  0  0  0  0  0  0  0  0  0
  1  2  1  0
  2  3  1  0
  3  4  2  0
  4  5  1  0
  5  6  2  0
  6  7  1  0
  6  8  1  0
  8  9  2  0
  9 10  1  0
 10 11  2  0
 10 12  1  0
 12 13  1  0
 13 14  1  0
 14 15  1  0
 15 16  1  0
 16 17  1  1
 16 18  1  0
  9  3  1  0
 18 12  1  0
M  END
>  <HIPPO ID>  (206) 
78383

>  <ref_url>  (206) 
None

>  <ref_pdb>  (206) 
c0300a

>  <inchikey>  (206) 
LILGELNVMFEYFO-SECBINFHSA-N

>  <original SMILES>  (206) 
COc1ccc(F)cc1C(=O)N1CCN[C@H](C)C1

>  <generation_date>  (206) 
None

>  <tags>  (206) 
[]

>  <ref_mols>  (206) 
c0398a,c0585a

>  <alias>  (206) 
None

>  <original ID>  (206) 
LILGELNVMFEYFO-SECBINFHSA-N

>  <exports>  (206) 
['/opt/xchem-fragalysis-2/maxwin/CHIKV_HIPPO/hippo_prod/CHIKV_prod11c_recipes/Recipe_1GJWBFH_poses.sdf', '/opt/xchem-fragalysis-2/maxwin/CHIKV_HIPPO/hippo_prod/CHIKV_prod11c_recipes/Recipe_1GJXK8G_poses.sdf', '/opt/xchem-fragalysis-2/maxwin/CHIKV_HIPPO/hippo_prod/CHIKV_prod11c_recipes/Recipe_1GJXW46_poses.sdf']

>  <method>  (206) 
None

>  <submitter_email>  (206) 
None

>  <submitter_name>  (206) 
None

$$$$
LILGELNVMFEYFO-VIFPVBQESA-N
     RDKit          3D

 18 19  0  0  0  0  0  0  0  0999 V2000
   19.1629    0.4335   17.3276 C   0  0  0  0  0  0  0  0  0  0  0  0
   18.2250   -0.6310   17.1654 O   0  0  0  0  0  0  0  0  0  0  0  0
   17.2179   -0.5432   18.0926 C   0  0  0  0  0  0  0  0  0  0  0  0
   17.3257   -1.2315   19.2971 C   0  0  0  0  0  0  0  0  0  0  0  0
   16.2830   -1.1458   20.2197 C   0  0  0  0  0  0  0  0  0  0  0  0
   15.1466   -0.3919   19.9169 C   0  0  0  0  0  0  0  0  0  0  0  0
   14.1866   -0.2682   20.8418 F   0  0  0  0  0  0  0  0  0  0  0  0
   14.9954    0.2402   18.6893 C   0  0  0  0  0  0  0  0  0  0  0  0
   16.0464    0.1629   17.7859 C   0  0  0  0  0  0  0  0  0  0  0  0
   15.9212    0.6131   16.4033 C   0  0  0  0  0  0  0  0  0  0  0  0
   15.5147   -0.2243   15.6080 O   0  0  0  0  0  0  0  0  0  0  0  0
   16.5815    1.7864   16.0645 N   0  0  0  0  0  0  0  0  0  0  0  0
   17.2847    1.8055   14.7942 C   0  0  0  0  0  0  0  0  0  0  0  0
   18.1730    3.0373   14.6184 C   0  0  0  0  0  0  0  0  0  0  0  0
   17.5123    4.3382   14.8340 N   0  0  0  0  0  0  0  0  0  0  0  0
   16.2313    4.2077   15.5581 C   0  0  1  0  0  0  0  0  0  0  0  0
   15.0935    4.0906   14.5334 C   0  0  0  0  0  0  0  0  0  0  0  0
   16.2084    3.0738   16.6202 C   0  0  0  0  0  0  0  0  0  0  0  0
  1  2  1  0
  2  3  1  0
  3  4  2  0
  4  5  1  0
  5  6  2  0
  6  7  1  0
  6  8  1  0
  8  9  2  0
  9 10  1  0
 10 11  2  0
 10 12  1  0
 12 13  1  0
 13 14  1  0
 14 15  1  0
 15 16  1  0
 16 17  1  6
 16 18  1  0
  9  3  1  0
 18 12  1  0
M  END
>  <HIPPO ID>  (207) 
78384

>  <ref_url>  (207) 
None

>  <ref_pdb>  (207) 
c0300a

>  <inchikey>  (207) 
LILGELNVMFEYFO-VIFPVBQESA-N

>  <original SMILES>  (207) 
COc1ccc(F)cc1C(=O)N1CCN[C@@H](C)C1

>  <generation_date>  (207) 
None

>  <tags>  (207) 
[]

>  <ref_mols>  (207) 
c0398a,c0585a

>  <alias>  (207) 
None

>  <original ID>  (207) 
LILGELNVMFEYFO-VIFPVBQESA-N

>  <exports>  (207) 
['/opt/xchem-fragalysis-2/maxwin/CHIKV_HIPPO/hippo_prod/CHIKV_prod11c_recipes/Recipe_1GJWBFH_poses.sdf', '/opt/xchem-fragalysis-2/maxwin/CHIKV_HIPPO/hippo_prod/CHIKV_prod11c_recipes/Recipe_1GJXK8G_poses.sdf', '/opt/xchem-fragalysis-2/maxwin/CHIKV_HIPPO/hippo_prod/CHIKV_prod11c_recipes/Recipe_1GJXW46_poses.sdf']

>  <method>  (207) 
None

>  <submitter_email>  (207) 
None

>  <submitter_name>  (207) 
None

$$$$
ZJPSAIHCPLIDFR-SSDOTTSWSA-N
     RDKit          3D

 18 19  0  0  0  0  0  0  0  0999 V2000
   16.2133    2.3069   14.1028 C   0  0  0  0  0  0  0  0  0  0  0  0
   16.1972    2.6008   15.5878 C   0  0  2  0  0  0  0  0  0  0  0  0
   16.8230    3.9915   15.7379 C   0  0  0  0  0  0  0  0  0  0  0  0
   16.1979    5.0201   15.4895 O   0  0  0  0  0  0  0  0  0  0  0  0
   18.1630    4.0337   16.0284 N   0  0  0  0  0  0  0  0  0  0  0  0
   18.8991    2.8281   16.3385 C   0  0  0  0  0  0  0  0  0  0  0  0
   18.0268    1.8564   17.1395 C   0  0  0  0  0  0  0  0  0  0  0  0
   16.8018    1.5385   16.4123 N   0  0  0  0  0  0  0  0  0  0  0  0
   16.1316    0.3328   16.5454 C   0  0  0  0  0  0  0  0  0  0  0  0
   15.4614   -0.2059   15.6774 O   0  0  0  0  0  0  0  0  0  0  0  0
   16.2231   -0.3882   17.8158 C   0  0  0  0  0  0  0  0  0  0  0  0
   15.4665    0.0503   18.9021 C   0  0  0  0  0  0  0  0  0  0  0  0
   15.4714   -0.7111   20.0610 C   0  0  0  0  0  0  0  0  0  0  0  0
   14.7527   -0.3057   21.1165 F   0  0  0  0  0  0  0  0  0  0  0  0
   16.2070   -1.8893   20.1474 C   0  0  0  0  0  0  0  0  0  0  0  0
   16.9325   -2.3225   19.0407 C   0  0  0  0  0  0  0  0  0  0  0  0
   17.8267   -3.7875   19.1203 Cl  0  0  0  0  0  0  0  0  0  0  0  0
   16.9441   -1.5806   17.8655 C   0  0  0  0  0  0  0  0  0  0  0  0
  2  1  1  6
  2  3  1  0
  3  4  2  0
  3  5  1  0
  5  6  1  0
  6  7  1  0
  7  8  1  0
  8  9  1  0
  9 10  2  0
  9 11  1  0
 11 12  2  0
 12 13  1  0
 13 14  1  0
 13 15  2  0
 15 16  1  0
 16 17  1  0
 16 18  2  0
  8  2  1  0
 18 11  1  0
M  END
>  <HIPPO ID>  (208) 
78680

>  <ref_url>  (208) 
None

>  <ref_pdb>  (208) 
c0300a

>  <inchikey>  (208) 
ZJPSAIHCPLIDFR-SSDOTTSWSA-N

>  <original SMILES>  (208) 
C[C@@H]1C(=O)NCCN1C(=O)c1cc(F)cc(Cl)c1

>  <generation_date>  (208) 
None

>  <tags>  (208) 
[]

>  <ref_mols>  (208) 
c0398a,c0585a

>  <alias>  (208) 
None

>  <original ID>  (208) 
ZJPSAIHCPLIDFR-SSDOTTSWSA-N

>  <exports>  (208) 
['/opt/xchem-fragalysis-2/maxwin/CHIKV_HIPPO/hippo_prod/CHIKV_prod11c_recipes/Recipe_1GJWBFH_poses.sdf', '/opt/xchem-fragalysis-2/maxwin/CHIKV_HIPPO/hippo_prod/CHIKV_prod11c_recipes/Recipe_1GJXK8G_poses.sdf', '/opt/xchem-fragalysis-2/maxwin/CHIKV_HIPPO/hippo_prod/CHIKV_prod11c_recipes/Recipe_1GJXW46_poses.sdf']

>  <method>  (208) 
None

>  <submitter_email>  (208) 
None

>  <submitter_name>  (208) 
None

$$$$
ZJPSAIHCPLIDFR-SSDOTTSWSA-N
     RDKit          3D

 18 19  0  0  0  0  0  0  0  0999 V2000
   16.1274    2.3055   14.1454 C   0  0  0  0  0  0  0  0  0  0  0  0
   16.1504    2.6234   15.6302 C   0  0  2  0  0  0  0  0  0  0  0  0
   16.8221    3.9918   15.7381 C   0  0  0  0  0  0  0  0  0  0  0  0
   16.2197    5.0338   15.4869 O   0  0  0  0  0  0  0  0  0  0  0  0
   18.1856    4.0000   15.9228 N   0  0  0  0  0  0  0  0  0  0  0  0
   18.8158    2.9500   16.6978 C   0  0  0  0  0  0  0  0  0  0  0  0
   18.2165    1.5665   16.4558 C   0  0  0  0  0  0  0  0  0  0  0  0
   16.7567    1.6021   16.4985 N   0  0  0  0  0  0  0  0  0  0  0  0
   16.1121    0.3685   16.5709 C   0  0  0  0  0  0  0  0  0  0  0  0
   15.5140   -0.1907   15.6661 O   0  0  0  0  0  0  0  0  0  0  0  0
   16.1891   -0.3497   17.8451 C   0  0  0  0  0  0  0  0  0  0  0  0
   15.4568    0.1039   18.9401 C   0  0  0  0  0  0  0  0  0  0  0  0
   15.4567   -0.6633   20.0961 C   0  0  0  0  0  0  0  0  0  0  0  0
   14.7492   -0.2527   21.1572 F   0  0  0  0  0  0  0  0  0  0  0  0
   16.1731   -1.8544   20.1751 C   0  0  0  0  0  0  0  0  0  0  0  0
   16.8799   -2.2993   19.0619 C   0  0  0  0  0  0  0  0  0  0  0  0
   17.7569   -3.7753   19.1312 Cl  0  0  0  0  0  0  0  0  0  0  0  0
   16.8873   -1.5576   17.8873 C   0  0  0  0  0  0  0  0  0  0  0  0
  2  1  1  6
  2  3  1  0
  3  4  2  0
  3  5  1  0
  5  6  1  0
  6  7  1  0
  7  8  1  0
  8  9  1  0
  9 10  2  0
  9 11  1  0
 11 12  2  0
 12 13  1  0
 13 14  1  0
 13 15  2  0
 15 16  1  0
 16 17  1  0
 16 18  2  0
  8  2  1  0
 18 11  1  0
M  END
>  <HIPPO ID>  (209) 
78681

>  <ref_url>  (209) 
None

>  <ref_pdb>  (209) 
c0300a

>  <inchikey>  (209) 
ZJPSAIHCPLIDFR-SSDOTTSWSA-N

>  <original SMILES>  (209) 
C[C@@H]1C(=O)NCCN1C(=O)c1cc(F)cc(Cl)c1

>  <generation_date>  (209) 
None

>  <tags>  (209) 
[]

>  <ref_mols>  (209) 
c0398a,c0585a

>  <alias>  (209) 
None

>  <original ID>  (209) 
ZJPSAIHCPLIDFR-SSDOTTSWSA-N

>  <exports>  (209) 
['/opt/xchem-fragalysis-2/maxwin/CHIKV_HIPPO/hippo_prod/CHIKV_prod11c_recipes/Recipe_1GJWBFH_poses.sdf', '/opt/xchem-fragalysis-2/maxwin/CHIKV_HIPPO/hippo_prod/CHIKV_prod11c_recipes/Recipe_1GJXK8G_poses.sdf', '/opt/xchem-fragalysis-2/maxwin/CHIKV_HIPPO/hippo_prod/CHIKV_prod11c_recipes/Recipe_1GJXW46_poses.sdf']

>  <method>  (209) 
None

>  <submitter_email>  (209) 
None

>  <submitter_name>  (209) 
None

$$$$
OMKRQRUXMPDVKF-DTWKUNHWSA-N
     RDKit          3D

 18 19  0  0  0  0  0  0  0  0999 V2000
   16.2820    5.0323   14.8048 C   0  0  0  0  0  0  0  0  0  0  0  0
   16.8938    3.9512   15.6935 C   0  0  2  0  0  0  0  0  0  0  0  0
   18.3418    3.8474   15.4227 N   0  0  0  0  0  0  0  0  0  0  0  0
   18.9106    2.5888   15.9531 C   0  0  0  0  0  0  0  0  0  0  0  0
   18.0343    1.8533   16.9904 C   0  0  0  0  0  0  0  0  0  0  0  0
   16.7044    1.5761   16.4485 N   0  0  0  0  0  0  0  0  0  0  0  0
   16.0979    0.3360   16.5797 C   0  0  0  0  0  0  0  0  0  0  0  0
   15.4543   -0.2502   15.7212 O   0  0  0  0  0  0  0  0  0  0  0  0
   16.2207   -0.3687   17.8566 C   0  0  0  0  0  0  0  0  0  0  0  0
   15.4859    0.0775   18.9541 C   0  0  0  0  0  0  0  0  0  0  0  0
   15.4935   -0.6894   20.1095 C   0  0  0  0  0  0  0  0  0  0  0  0
   14.7821   -0.2851   21.1704 F   0  0  0  0  0  0  0  0  0  0  0  0
   16.2166   -1.8763   20.1846 C   0  0  0  0  0  0  0  0  0  0  0  0
   16.9248   -2.3145   19.0690 C   0  0  0  0  0  0  0  0  0  0  0  0
   17.8017   -3.7909   19.1318 Cl  0  0  0  0  0  0  0  0  0  0  0  0
   16.9279   -1.5706   17.8955 C   0  0  0  0  0  0  0  0  0  0  0  0
   16.1397    2.6044   15.5559 C   0  0  2  0  0  0  0  0  0  0  0  0
   16.0715    2.1793   14.1021 C   0  0  0  0  0  0  0  0  0  0  0  0
  2  1  1  6
  2  3  1  0
  3  4  1  0
  4  5  1  0
  5  6  1  0
  6  7  1  0
  7  8  2  0
  7  9  1  0
  9 10  2  0
 10 11  1  0
 11 12  1  0
 11 13  2  0
 13 14  1  0
 14 15  1  0
 14 16  2  0
  6 17  1  0
 17 18  1  6
 17  2  1  0
 16  9  1  0
M  END
>  <HIPPO ID>  (210) 
78689

>  <ref_url>  (210) 
None

>  <ref_pdb>  (210) 
c0300a

>  <inchikey>  (210) 
OMKRQRUXMPDVKF-DTWKUNHWSA-N

>  <original SMILES>  (210) 
C[C@@H]1NCCN(C(=O)c2cc(F)cc(Cl)c2)[C@@H]1C

>  <generation_date>  (210) 
None

>  <tags>  (210) 
[]

>  <ref_mols>  (210) 
c0398a,c0585a

>  <alias>  (210) 
None

>  <original ID>  (210) 
OMKRQRUXMPDVKF-DTWKUNHWSA-N

>  <exports>  (210) 
['/opt/xchem-fragalysis-2/maxwin/CHIKV_HIPPO/hippo_prod/CHIKV_prod11c_recipes/Recipe_1GJWBFH_poses.sdf', '/opt/xchem-fragalysis-2/maxwin/CHIKV_HIPPO/hippo_prod/CHIKV_prod11c_recipes/Recipe_1GJXK8G_poses.sdf', '/opt/xchem-fragalysis-2/maxwin/CHIKV_HIPPO/hippo_prod/CHIKV_prod11c_recipes/Recipe_1GJXW46_poses.sdf']

>  <method>  (210) 
None

>  <submitter_email>  (210) 
None

>  <submitter_name>  (210) 
None

$$$$
OMKRQRUXMPDVKF-RKDXNWHRSA-N
     RDKit          3D

 18 19  0  0  0  0  0  0  0  0999 V2000
   16.2974    2.3279   14.0701 C   0  0  0  0  0  0  0  0  0  0  0  0
   16.2092    2.7394   15.5319 C   0  0  2  0  0  0  0  0  0  0  0  0
   16.8854    4.1267   15.6896 C   0  0  1  0  0  0  0  0  0  0  0  0
   16.4066    4.8272   16.9591 C   0  0  0  0  0  0  0  0  0  0  0  0
   18.3618    4.0448   15.6123 N   0  0  0  0  0  0  0  0  0  0  0  0
   18.8696    3.0895   16.6150 C   0  0  0  0  0  0  0  0  0  0  0  0
   18.2080    1.7019   16.5626 C   0  0  0  0  0  0  0  0  0  0  0  0
   16.7458    1.7463   16.4888 N   0  0  0  0  0  0  0  0  0  0  0  0
   16.1130    0.4995   16.5554 C   0  0  0  0  0  0  0  0  0  0  0  0
   15.5430   -0.0682   15.6366 O   0  0  0  0  0  0  0  0  0  0  0  0
   16.1829   -0.2358   17.8231 C   0  0  0  0  0  0  0  0  0  0  0  0
   15.4369    0.1951   18.9180 C   0  0  0  0  0  0  0  0  0  0  0  0
   15.4225   -0.5948   20.0598 C   0  0  0  0  0  0  0  0  0  0  0  0
   14.6996   -0.2073   21.1195 F   0  0  0  0  0  0  0  0  0  0  0  0
   16.1396   -1.7863   20.1268 C   0  0  0  0  0  0  0  0  0  0  0  0
   16.8625   -2.2086   19.0157 C   0  0  0  0  0  0  0  0  0  0  0  0
   17.7427   -3.6839   19.0737 Cl  0  0  0  0  0  0  0  0  0  0  0  0
   16.8826   -1.4449   17.8544 C   0  0  0  0  0  0  0  0  0  0  0  0
  2  1  1  6
  2  3  1  0
  3  4  1  1
  3  5  1  0
  5  6  1  0
  6  7  1  0
  7  8  1  0
  8  9  1  0
  9 10  2  0
  9 11  1  0
 11 12  2  0
 12 13  1  0
 13 14  1  0
 13 15  2  0
 15 16  1  0
 16 17  1  0
 16 18  2  0
  8  2  1  0
 18 11  1  0
M  END
>  <HIPPO ID>  (211) 
78690

>  <ref_url>  (211) 
None

>  <ref_pdb>  (211) 
c0300a

>  <inchikey>  (211) 
OMKRQRUXMPDVKF-RKDXNWHRSA-N

>  <original SMILES>  (211) 
C[C@@H]1[C@@H](C)NCCN1C(=O)c1cc(F)cc(Cl)c1

>  <generation_date>  (211) 
None

>  <tags>  (211) 
[]

>  <ref_mols>  (211) 
c0398a,c0585a

>  <alias>  (211) 
None

>  <original ID>  (211) 
OMKRQRUXMPDVKF-RKDXNWHRSA-N

>  <exports>  (211) 
['/opt/xchem-fragalysis-2/maxwin/CHIKV_HIPPO/hippo_prod/CHIKV_prod11c_recipes/Recipe_1GJWBFH_poses.sdf', '/opt/xchem-fragalysis-2/maxwin/CHIKV_HIPPO/hippo_prod/CHIKV_prod11c_recipes/Recipe_1GJXK8G_poses.sdf', '/opt/xchem-fragalysis-2/maxwin/CHIKV_HIPPO/hippo_prod/CHIKV_prod11c_recipes/Recipe_1GJXW46_poses.sdf']

>  <method>  (211) 
None

>  <submitter_email>  (211) 
None

>  <submitter_name>  (211) 
None

$$$$
OMKRQRUXMPDVKF-DTWKUNHWSA-N
     RDKit          3D

 18 19  0  0  0  0  0  0  0  0999 V2000
   16.3141    5.0098   14.7360 C   0  0  0  0  0  0  0  0  0  0  0  0
   16.9128    3.9581   15.6669 C   0  0  2  0  0  0  0  0  0  0  0  0
   18.3523    3.8112   15.3542 N   0  0  0  0  0  0  0  0  0  0  0  0
   18.9346    2.8484   16.3080 C   0  0  0  0  0  0  0  0  0  0  0  0
   18.2144    1.4896   16.3528 C   0  0  0  0  0  0  0  0  0  0  0  0
   16.7579    1.5959   16.4719 N   0  0  0  0  0  0  0  0  0  0  0  0
   16.0972    0.3673   16.5970 C   0  0  0  0  0  0  0  0  0  0  0  0
   15.4975   -0.2331   15.7181 O   0  0  0  0  0  0  0  0  0  0  0  0
   16.1971   -0.3254   17.8822 C   0  0  0  0  0  0  0  0  0  0  0  0
   15.4667    0.1300   18.9764 C   0  0  0  0  0  0  0  0  0  0  0  0
   15.4648   -0.6393   20.1313 C   0  0  0  0  0  0  0  0  0  0  0  0
   14.7526   -0.2315   21.1905 F   0  0  0  0  0  0  0  0  0  0  0  0
   16.1771   -1.8336   20.2097 C   0  0  0  0  0  0  0  0  0  0  0  0
   16.8825   -2.2801   19.0968 C   0  0  0  0  0  0  0  0  0  0  0  0
   17.7465   -3.7643   19.1578 Cl  0  0  0  0  0  0  0  0  0  0  0  0
   16.8924   -1.5361   17.9245 C   0  0  0  0  0  0  0  0  0  0  0  0
   16.1521    2.6085   15.5800 C   0  0  2  0  0  0  0  0  0  0  0  0
   16.0107    2.1741   14.1287 C   0  0  0  0  0  0  0  0  0  0  0  0
  2  1  1  6
  2  3  1  0
  3  4  1  0
  4  5  1  0
  5  6  1  0
  6  7  1  0
  7  8  2  0
  7  9  1  0
  9 10  2  0
 10 11  1  0
 11 12  1  0
 11 13  2  0
 13 14  1  0
 14 15  1  0
 14 16  2  0
  6 17  1  0
 17 18  1  6
 17  2  1  0
 16  9  1  0
M  END
>  <HIPPO ID>  (212) 
78691

>  <ref_url>  (212) 
None

>  <ref_pdb>  (212) 
c0300a

>  <inchikey>  (212) 
OMKRQRUXMPDVKF-DTWKUNHWSA-N

>  <original SMILES>  (212) 
C[C@@H]1NCCN(C(=O)c2cc(F)cc(Cl)c2)[C@@H]1C

>  <generation_date>  (212) 
None

>  <tags>  (212) 
[]

>  <ref_mols>  (212) 
c0398a,c0585a

>  <alias>  (212) 
None

>  <original ID>  (212) 
OMKRQRUXMPDVKF-DTWKUNHWSA-N

>  <exports>  (212) 
['/opt/xchem-fragalysis-2/maxwin/CHIKV_HIPPO/hippo_prod/CHIKV_prod11c_recipes/Recipe_1GJWBFH_poses.sdf', '/opt/xchem-fragalysis-2/maxwin/CHIKV_HIPPO/hippo_prod/CHIKV_prod11c_recipes/Recipe_1GJXK8G_poses.sdf', '/opt/xchem-fragalysis-2/maxwin/CHIKV_HIPPO/hippo_prod/CHIKV_prod11c_recipes/Recipe_1GJXW46_poses.sdf']

>  <method>  (212) 
None

>  <submitter_email>  (212) 
None

>  <submitter_name>  (212) 
None

$$$$
OMKRQRUXMPDVKF-RKDXNWHRSA-N
     RDKit          3D

 18 19  0  0  0  0  0  0  0  0999 V2000
   16.4160    4.8302   16.9196 C   0  0  0  0  0  0  0  0  0  0  0  0
   16.9138    4.1102   15.6680 C   0  0  1  0  0  0  0  0  0  0  0  0
   18.3878    4.0747   15.6769 N   0  0  0  0  0  0  0  0  0  0  0  0
   18.9369    2.7522   16.0248 C   0  0  0  0  0  0  0  0  0  0  0  0
   18.0616    1.9256   16.9827 C   0  0  0  0  0  0  0  0  0  0  0  0
   16.7223    1.7099   16.4389 N   0  0  0  0  0  0  0  0  0  0  0  0
   16.1125    0.4656   16.5304 C   0  0  0  0  0  0  0  0  0  0  0  0
   15.5045   -0.1004   15.6342 O   0  0  0  0  0  0  0  0  0  0  0  0
   16.2024   -0.2674   17.7986 C   0  0  0  0  0  0  0  0  0  0  0  0
   15.4495    0.1593   18.8919 C   0  0  0  0  0  0  0  0  0  0  0  0
   15.4402   -0.6250   20.0371 C   0  0  0  0  0  0  0  0  0  0  0  0
   14.7136   -0.2384   21.0945 F   0  0  0  0  0  0  0  0  0  0  0  0
   16.1664   -1.8101   20.1081 C   0  0  0  0  0  0  0  0  0  0  0  0
   16.8946   -2.2294   18.9987 C   0  0  0  0  0  0  0  0  0  0  0  0
   17.7831   -3.6993   19.0630 Cl  0  0  0  0  0  0  0  0  0  0  0  0
   16.9119   -1.4694   17.8343 C   0  0  0  0  0  0  0  0  0  0  0  0
   16.2142    2.7337   15.5044 C   0  0  2  0  0  0  0  0  0  0  0  0
   16.2912    2.3273   14.0435 C   0  0  0  0  0  0  0  0  0  0  0  0
  2  1  1  1
  2  3  1  0
  3  4  1  0
  4  5  1  0
  5  6  1  0
  6  7  1  0
  7  8  2  0
  7  9  1  0
  9 10  2  0
 10 11  1  0
 11 12  1  0
 11 13  2  0
 13 14  1  0
 14 15  1  0
 14 16  2  0
  6 17  1  0
 17 18  1  6
 17  2  1  0
 16  9  1  0
M  END
>  <HIPPO ID>  (213) 
78692

>  <ref_url>  (213) 
None

>  <ref_pdb>  (213) 
c0300a

>  <inchikey>  (213) 
OMKRQRUXMPDVKF-RKDXNWHRSA-N

>  <original SMILES>  (213) 
C[C@@H]1[C@@H](C)NCCN1C(=O)c1cc(F)cc(Cl)c1

>  <generation_date>  (213) 
None

>  <tags>  (213) 
[]

>  <ref_mols>  (213) 
c0398a,c0585a

>  <alias>  (213) 
None

>  <original ID>  (213) 
OMKRQRUXMPDVKF-RKDXNWHRSA-N

>  <exports>  (213) 
['/opt/xchem-fragalysis-2/maxwin/CHIKV_HIPPO/hippo_prod/CHIKV_prod11c_recipes/Recipe_1GJWBFH_poses.sdf', '/opt/xchem-fragalysis-2/maxwin/CHIKV_HIPPO/hippo_prod/CHIKV_prod11c_recipes/Recipe_1GJXK8G_poses.sdf', '/opt/xchem-fragalysis-2/maxwin/CHIKV_HIPPO/hippo_prod/CHIKV_prod11c_recipes/Recipe_1GJXW46_poses.sdf']

>  <method>  (213) 
None

>  <submitter_email>  (213) 
None

>  <submitter_name>  (213) 
None

$$$$
GRCVRRIZQHLAMC-SECBINFHSA-N
     RDKit          3D

 18 19  0  0  0  0  0  0  0  0999 V2000
   18.0704   -1.8961   16.9617 C   0  0  0  0  0  0  0  0  0  0  0  0
   17.1643   -1.4229   18.0552 C   0  0  0  0  0  0  0  0  0  0  0  0
   17.1172   -2.1212   19.2693 C   0  0  0  0  0  0  0  0  0  0  0  0
   16.2421   -1.7214   20.2805 C   0  0  0  0  0  0  0  0  0  0  0  0
   15.3968   -0.6361   20.0762 C   0  0  0  0  0  0  0  0  0  0  0  0
   14.5642   -0.2573   21.0547 F   0  0  0  0  0  0  0  0  0  0  0  0
   15.4012    0.0571   18.8777 C   0  0  0  0  0  0  0  0  0  0  0  0
   16.2936   -0.3350   17.8763 C   0  0  0  0  0  0  0  0  0  0  0  0
   16.1718    0.3406   16.5777 C   0  0  0  0  0  0  0  0  0  0  0  0
   15.4773   -0.2224   15.7435 O   0  0  0  0  0  0  0  0  0  0  0  0
   16.8310    1.5472   16.3897 N   0  0  0  0  0  0  0  0  0  0  0  0
   18.0560    1.9159   17.0910 C   0  0  0  0  0  0  0  0  0  0  0  0
   18.9103    2.8295   16.2071 C   0  0  0  0  0  0  0  0  0  0  0  0
   18.1747    4.0271   15.8651 N   0  0  0  0  0  0  0  0  0  0  0  0
   16.8185    3.9855   15.6583 C   0  0  0  0  0  0  0  0  0  0  0  0
   16.1840    5.0112   15.4227 O   0  0  0  0  0  0  0  0  0  0  0  0
   16.1796    2.5931   15.5789 C   0  0  1  0  0  0  0  0  0  0  0  0
   16.1165    2.2730   14.1015 C   0  0  0  0  0  0  0  0  0  0  0  0
  1  2  1  0
  2  3  2  0
  3  4  1  0
  4  5  2  0
  5  6  1  0
  5  7  1  0
  7  8  2  0
  8  9  1  0
  9 10  2  0
  9 11  1  0
 11 12  1  0
 12 13  1  0
 13 14  1  0
 14 15  1  0
 15 16  2  0
 15 17  1  0
 17 18  1  6
  8  2  1  0
 17 11  1  0
M  END
>  <HIPPO ID>  (214) 
78846

>  <ref_url>  (214) 
None

>  <ref_pdb>  (214) 
c0300a

>  <inchikey>  (214) 
GRCVRRIZQHLAMC-SECBINFHSA-N

>  <original SMILES>  (214) 
Cc1ccc(F)cc1C(=O)N1CCNC(=O)[C@H]1C

>  <generation_date>  (214) 
None

>  <tags>  (214) 
[]

>  <ref_mols>  (214) 
c0398a,c0585a

>  <alias>  (214) 
None

>  <original ID>  (214) 
GRCVRRIZQHLAMC-SECBINFHSA-N

>  <exports>  (214) 
['/opt/xchem-fragalysis-2/maxwin/CHIKV_HIPPO/hippo_prod/CHIKV_prod11c_recipes/Recipe_1GJXK8G_poses.sdf', '/opt/xchem-fragalysis-2/maxwin/CHIKV_HIPPO/hippo_prod/CHIKV_prod11c_recipes/Recipe_1GJXW46_poses.sdf']

>  <method>  (214) 
None

>  <submitter_email>  (214) 
None

>  <submitter_name>  (214) 
None

$$$$
GRCVRRIZQHLAMC-SECBINFHSA-N
     RDKit          3D

 18 19  0  0  0  0  0  0  0  0999 V2000
   17.9916   -1.8936   16.9839 C   0  0  0  0  0  0  0  0  0  0  0  0
   17.1034   -1.3962   18.0816 C   0  0  0  0  0  0  0  0  0  0  0  0
   17.0383   -2.1069   19.2879 C   0  0  0  0  0  0  0  0  0  0  0  0
   16.1805   -1.6909   20.3058 C   0  0  0  0  0  0  0  0  0  0  0  0
   15.3699   -0.5770   20.1160 C   0  0  0  0  0  0  0  0  0  0  0  0
   14.5450   -0.1913   21.0985 F   0  0  0  0  0  0  0  0  0  0  0  0
   15.3972    0.1349   18.9281 C   0  0  0  0  0  0  0  0  0  0  0  0
   16.2707   -0.2746   17.9176 C   0  0  0  0  0  0  0  0  0  0  0  0
   16.1714    0.4197   16.6240 C   0  0  0  0  0  0  0  0  0  0  0  0
   15.5607   -0.1553   15.7358 O   0  0  0  0  0  0  0  0  0  0  0  0
   16.7608    1.6827   16.5329 N   0  0  0  0  0  0  0  0  0  0  0  0
   18.2169    1.7499   16.6163 C   0  0  0  0  0  0  0  0  0  0  0  0
   18.7064    3.1790   16.8331 C   0  0  0  0  0  0  0  0  0  0  0  0
   18.0857    4.1458   15.9518 N   0  0  0  0  0  0  0  0  0  0  0  0
   16.7410    4.0507   15.6800 C   0  0  0  0  0  0  0  0  0  0  0  0
   16.1024    5.0429   15.3341 O   0  0  0  0  0  0  0  0  0  0  0  0
   16.1518    2.6439   15.6016 C   0  0  1  0  0  0  0  0  0  0  0  0
   16.2183    2.2674   14.1344 C   0  0  0  0  0  0  0  0  0  0  0  0
  1  2  1  0
  2  3  2  0
  3  4  1  0
  4  5  2  0
  5  6  1  0
  5  7  1  0
  7  8  2  0
  8  9  1  0
  9 10  2  0
  9 11  1  0
 11 12  1  0
 12 13  1  0
 13 14  1  0
 14 15  1  0
 15 16  2  0
 15 17  1  0
 17 18  1  6
  8  2  1  0
 17 11  1  0
M  END
>  <HIPPO ID>  (215) 
78847

>  <ref_url>  (215) 
None

>  <ref_pdb>  (215) 
c0300a

>  <inchikey>  (215) 
GRCVRRIZQHLAMC-SECBINFHSA-N

>  <original SMILES>  (215) 
Cc1ccc(F)cc1C(=O)N1CCNC(=O)[C@H]1C

>  <generation_date>  (215) 
None

>  <tags>  (215) 
[]

>  <ref_mols>  (215) 
c0398a,c0585a

>  <alias>  (215) 
None

>  <original ID>  (215) 
GRCVRRIZQHLAMC-SECBINFHSA-N

>  <exports>  (215) 
['/opt/xchem-fragalysis-2/maxwin/CHIKV_HIPPO/hippo_prod/CHIKV_prod11c_recipes/Recipe_1GJXK8G_poses.sdf', '/opt/xchem-fragalysis-2/maxwin/CHIKV_HIPPO/hippo_prod/CHIKV_prod11c_recipes/Recipe_1GJXW46_poses.sdf']

>  <method>  (215) 
None

>  <submitter_email>  (215) 
None

>  <submitter_name>  (215) 
None

$$$$
VFFTVTFJDHBDNP-GHMZBOCLSA-N
     RDKit          3D

 18 19  0  0  0  0  0  0  0  0999 V2000
   18.0791   -1.9173   16.9493 C   0  0  0  0  0  0  0  0  0  0  0  0
   17.1530   -1.4337   18.0214 C   0  0  0  0  0  0  0  0  0  0  0  0
   17.0755   -2.1293   19.2356 C   0  0  0  0  0  0  0  0  0  0  0  0
   16.1846   -1.7190   20.2279 C   0  0  0  0  0  0  0  0  0  0  0  0
   15.3498   -0.6297   20.0024 C   0  0  0  0  0  0  0  0  0  0  0  0
   14.5022   -0.2428   20.9652 F   0  0  0  0  0  0  0  0  0  0  0  0
   15.3834    0.0607   18.8018 C   0  0  0  0  0  0  0  0  0  0  0  0
   16.2969   -0.3366   17.8213 C   0  0  0  0  0  0  0  0  0  0  0  0
   16.2335    0.3539   16.5224 C   0  0  0  0  0  0  0  0  0  0  0  0
   15.5027   -0.1716   15.6940 O   0  0  0  0  0  0  0  0  0  0  0  0
   17.0062    1.5051   16.3156 N   0  0  0  0  0  0  0  0  0  0  0  0
   18.0891    1.8414   17.2296 C   0  0  0  0  0  0  0  0  0  0  0  0
   19.0644    2.8330   16.6026 C   0  0  0  0  0  0  0  0  0  0  0  0
   18.3827    4.1073   16.3898 N   0  0  0  0  0  0  0  0  0  0  0  0
   17.2831    3.9302   15.4344 C   0  0  2  0  0  0  0  0  0  0  0  0
   16.3969    5.1733   15.5532 C   0  0  0  0  0  0  0  0  0  0  0  0
   16.3953    2.6389   15.5820 C   0  0  1  0  0  0  0  0  0  0  0  0
   15.9530    2.2938   14.1645 C   0  0  0  0  0  0  0  0  0  0  0  0
  1  2  1  0
  2  3  2  0
  3  4  1  0
  4  5  2  0
  5  6  1  0
  5  7  1  0
  7  8  2  0
  8  9  1  0
  9 10  2  0
  9 11  1  0
 11 12  1  0
 12 13  1  0
 13 14  1  0
 14 15  1  0
 15 16  1  1
 15 17  1  0
 17 18  1  6
  8  2  1  0
 17 11  1  0
M  END
>  <HIPPO ID>  (216) 
78881

>  <ref_url>  (216) 
None

>  <ref_pdb>  (216) 
c0300a

>  <inchikey>  (216) 
VFFTVTFJDHBDNP-GHMZBOCLSA-N

>  <original SMILES>  (216) 
Cc1ccc(F)cc1C(=O)N1CCN[C@H](C)[C@H]1C

>  <generation_date>  (216) 
None

>  <tags>  (216) 
[]

>  <ref_mols>  (216) 
c0398a,c0585a

>  <alias>  (216) 
None

>  <original ID>  (216) 
VFFTVTFJDHBDNP-GHMZBOCLSA-N

>  <exports>  (216) 
['/opt/xchem-fragalysis-2/maxwin/CHIKV_HIPPO/hippo_prod/CHIKV_prod11c_recipes/Recipe_1GJXK8G_poses.sdf', '/opt/xchem-fragalysis-2/maxwin/CHIKV_HIPPO/hippo_prod/CHIKV_prod11c_recipes/Recipe_1GJXW46_poses.sdf']

>  <method>  (216) 
None

>  <submitter_email>  (216) 
None

>  <submitter_name>  (216) 
None

$$$$
VFFTVTFJDHBDNP-WDEREUQCSA-N
     RDKit          3D

 18 19  0  0  0  0  0  0  0  0999 V2000
   18.0343   -1.8657   16.9821 C   0  0  0  0  0  0  0  0  0  0  0  0
   17.1453   -1.3898   18.0890 C   0  0  0  0  0  0  0  0  0  0  0  0
   17.1003   -2.0998   19.2963 C   0  0  0  0  0  0  0  0  0  0  0  0
   16.2382   -1.6995   20.3179 C   0  0  0  0  0  0  0  0  0  0  0  0
   15.4061   -0.6006   20.1317 C   0  0  0  0  0  0  0  0  0  0  0  0
   14.5795   -0.2270   21.1174 F   0  0  0  0  0  0  0  0  0  0  0  0
   15.4122    0.1078   18.9421 C   0  0  0  0  0  0  0  0  0  0  0  0
   16.2889   -0.2868   17.9285 C   0  0  0  0  0  0  0  0  0  0  0  0
   16.1457    0.3827   16.6286 C   0  0  0  0  0  0  0  0  0  0  0  0
   15.4934   -0.2279   15.7926 O   0  0  0  0  0  0  0  0  0  0  0  0
   16.7318    1.6309   16.4576 N   0  0  0  0  0  0  0  0  0  0  0  0
   18.0255    1.9861   17.0370 C   0  0  0  0  0  0  0  0  0  0  0  0
   18.9228    2.6651   15.9782 C   0  0  0  0  0  0  0  0  0  0  0  0
   18.3436    3.8596   15.3209 N   0  0  0  0  0  0  0  0  0  0  0  0
   16.8972    3.9811   15.6056 C   0  0  1  0  0  0  0  0  0  0  0  0
   16.2817    5.0173   14.6671 C   0  0  0  0  0  0  0  0  0  0  0  0
   16.1441    2.6253   15.5399 C   0  0  1  0  0  0  0  0  0  0  0  0
   16.0546    2.1462   14.1056 C   0  0  0  0  0  0  0  0  0  0  0  0
  1  2  1  0
  2  3  2  0
  3  4  1  0
  4  5  2  0
  5  6  1  0
  5  7  1  0
  7  8  2  0
  8  9  1  0
  9 10  2  0
  9 11  1  0
 11 12  1  0
 12 13  1  0
 13 14  1  0
 14 15  1  0
 15 16  1  6
 15 17  1  0
 17 18  1  6
  8  2  1  0
 17 11  1  0
M  END
>  <HIPPO ID>  (217) 
78882

>  <ref_url>  (217) 
None

>  <ref_pdb>  (217) 
c0300a

>  <inchikey>  (217) 
VFFTVTFJDHBDNP-WDEREUQCSA-N

>  <original SMILES>  (217) 
Cc1ccc(F)cc1C(=O)N1CCN[C@@H](C)[C@H]1C

>  <generation_date>  (217) 
None

>  <tags>  (217) 
[]

>  <ref_mols>  (217) 
c0398a,c0585a

>  <alias>  (217) 
None

>  <original ID>  (217) 
VFFTVTFJDHBDNP-WDEREUQCSA-N

>  <exports>  (217) 
['/opt/xchem-fragalysis-2/maxwin/CHIKV_HIPPO/hippo_prod/CHIKV_prod11c_recipes/Recipe_1GJXK8G_poses.sdf', '/opt/xchem-fragalysis-2/maxwin/CHIKV_HIPPO/hippo_prod/CHIKV_prod11c_recipes/Recipe_1GJXW46_poses.sdf']

>  <method>  (217) 
None

>  <submitter_email>  (217) 
None

>  <submitter_name>  (217) 
None

$$$$
VFFTVTFJDHBDNP-GHMZBOCLSA-N
     RDKit          3D

 18 19  0  0  0  0  0  0  0  0999 V2000
   17.9811   -1.8102   16.9591 C   0  0  0  0  0  0  0  0  0  0  0  0
   17.0828   -1.3141   18.0490 C   0  0  0  0  0  0  0  0  0  0  0  0
   17.0005   -2.0431   19.2443 C   0  0  0  0  0  0  0  0  0  0  0  0
   16.1338   -1.6390   20.2581 C   0  0  0  0  0  0  0  0  0  0  0  0
   15.3310   -0.5186   20.0750 C   0  0  0  0  0  0  0  0  0  0  0  0
   14.4940   -0.1480   21.0534 F   0  0  0  0  0  0  0  0  0  0  0  0
   15.3774    0.2136   18.8985 C   0  0  0  0  0  0  0  0  0  0  0  0
   16.2597   -0.1831   17.8901 C   0  0  0  0  0  0  0  0  0  0  0  0
   16.1755    0.5302   16.6023 C   0  0  0  0  0  0  0  0  0  0  0  0
   15.5846   -0.0425   15.6985 O   0  0  0  0  0  0  0  0  0  0  0  0
   16.7705    1.7974   16.5200 N   0  0  0  0  0  0  0  0  0  0  0  0
   18.2247    1.8385   16.6862 C   0  0  0  0  0  0  0  0  0  0  0  0
   18.8087    3.2595   16.7440 C   0  0  0  0  0  0  0  0  0  0  0  0
   18.3073    4.1671   15.6956 N   0  0  0  0  0  0  0  0  0  0  0  0
   16.8277    4.1728   15.6951 C   0  0  2  0  0  0  0  0  0  0  0  0
   16.2498    4.8648   16.9276 C   0  0  0  0  0  0  0  0  0  0  0  0
   16.2328    2.7507   15.5262 C   0  0  1  0  0  0  0  0  0  0  0  0
   16.4180    2.3199   14.0806 C   0  0  0  0  0  0  0  0  0  0  0  0
  1  2  1  0
  2  3  2  0
  3  4  1  0
  4  5  2  0
  5  6  1  0
  5  7  1  0
  7  8  2  0
  8  9  1  0
  9 10  2  0
  9 11  1  0
 11 12  1  0
 12 13  1  0
 13 14  1  0
 14 15  1  0
 15 16  1  1
 15 17  1  0
 17 18  1  6
  8  2  1  0
 17 11  1  0
M  END
>  <HIPPO ID>  (218) 
78883

>  <ref_url>  (218) 
None

>  <ref_pdb>  (218) 
c0300a

>  <inchikey>  (218) 
VFFTVTFJDHBDNP-GHMZBOCLSA-N

>  <original SMILES>  (218) 
Cc1ccc(F)cc1C(=O)N1CCN[C@H](C)[C@H]1C

>  <generation_date>  (218) 
None

>  <tags>  (218) 
[]

>  <ref_mols>  (218) 
c0398a,c0585a

>  <alias>  (218) 
None

>  <original ID>  (218) 
VFFTVTFJDHBDNP-GHMZBOCLSA-N

>  <exports>  (218) 
['/opt/xchem-fragalysis-2/maxwin/CHIKV_HIPPO/hippo_prod/CHIKV_prod11c_recipes/Recipe_1GJXK8G_poses.sdf', '/opt/xchem-fragalysis-2/maxwin/CHIKV_HIPPO/hippo_prod/CHIKV_prod11c_recipes/Recipe_1GJXW46_poses.sdf']

>  <method>  (218) 
None

>  <submitter_email>  (218) 
None

>  <submitter_name>  (218) 
None

$$$$
VFFTVTFJDHBDNP-QWRGUYRKSA-N
     RDKit          3D

 18 19  0  0  0  0  0  0  0  0999 V2000
   18.0287   -1.7705   17.0331 C   0  0  0  0  0  0  0  0  0  0  0  0
   17.0682   -1.3047   18.0858 C   0  0  0  0  0  0  0  0  0  0  0  0
   16.9954   -1.9888   19.3053 C   0  0  0  0  0  0  0  0  0  0  0  0
   16.0850   -1.5856   20.2804 C   0  0  0  0  0  0  0  0  0  0  0  0
   15.2286   -0.5167   20.0315 C   0  0  0  0  0  0  0  0  0  0  0  0
   14.3640   -0.1404   20.9832 F   0  0  0  0  0  0  0  0  0  0  0  0
   15.2554    0.1624   18.8229 C   0  0  0  0  0  0  0  0  0  0  0  0
   16.1843   -0.2298   17.8592 C   0  0  0  0  0  0  0  0  0  0  0  0
   16.1466    0.4175   16.5386 C   0  0  0  0  0  0  0  0  0  0  0  0
   15.5912   -0.2414   15.6688 O   0  0  0  0  0  0  0  0  0  0  0  0
   16.7744    1.6531   16.3534 N   0  0  0  0  0  0  0  0  0  0  0  0
   17.7715    2.1662   17.2977 C   0  0  0  0  0  0  0  0  0  0  0  0
   19.0339    2.6782   16.5744 C   0  0  0  0  0  0  0  0  0  0  0  0
   18.7935    3.7337   15.5794 N   0  0  0  0  0  0  0  0  0  0  0  0
   17.4038    3.7252   15.0917 C   0  0  1  0  0  0  0  0  0  0  0  0
   17.3727    4.4568   13.7539 C   0  0  0  0  0  0  0  0  0  0  0  0
   16.8084    2.2889   15.0072 C   0  0  2  0  0  0  0  0  0  0  0  0
   15.4483    2.3854   14.3368 C   0  0  0  0  0  0  0  0  0  0  0  0
  1  2  1  0
  2  3  2  0
  3  4  1  0
  4  5  2  0
  5  6  1  0
  5  7  1  0
  7  8  2  0
  8  9  1  0
  9 10  2  0
  9 11  1  0
 11 12  1  0
 12 13  1  0
 13 14  1  0
 14 15  1  0
 15 16  1  6
 15 17  1  0
 17 18  1  1
  8  2  1  0
 17 11  1  0
M  END
>  <HIPPO ID>  (219) 
78884

>  <ref_url>  (219) 
None

>  <ref_pdb>  (219) 
c0300a

>  <inchikey>  (219) 
VFFTVTFJDHBDNP-QWRGUYRKSA-N

>  <original SMILES>  (219) 
Cc1ccc(F)cc1C(=O)N1CCN[C@@H](C)[C@@H]1C

>  <generation_date>  (219) 
None

>  <tags>  (219) 
[]

>  <ref_mols>  (219) 
c0398a,c0585a

>  <alias>  (219) 
None

>  <original ID>  (219) 
VFFTVTFJDHBDNP-QWRGUYRKSA-N

>  <exports>  (219) 
['/opt/xchem-fragalysis-2/maxwin/CHIKV_HIPPO/hippo_prod/CHIKV_prod11c_recipes/Recipe_1GJXK8G_poses.sdf', '/opt/xchem-fragalysis-2/maxwin/CHIKV_HIPPO/hippo_prod/CHIKV_prod11c_recipes/Recipe_1GJXW46_poses.sdf']

>  <method>  (219) 
None

>  <submitter_email>  (219) 
None

>  <submitter_name>  (219) 
None

$$$$
GCEYCIPYNZHZKA-GHMZBOCLSA-N
     RDKit          3D

 18 19  0  0  0  0  0  0  0  0999 V2000
   16.6481   -2.5024   21.3651 C   0  0  0  0  0  0  0  0  0  0  0  0
   16.4464   -1.7576   20.0827 C   0  0  0  0  0  0  0  0  0  0  0  0
   17.1767   -2.1283   18.9456 C   0  0  0  0  0  0  0  0  0  0  0  0
   17.0771   -1.3775   17.7776 C   0  0  0  0  0  0  0  0  0  0  0  0
   16.2699   -0.2370   17.7594 C   0  0  0  0  0  0  0  0  0  0  0  0
   16.1538    0.5281   16.5123 C   0  0  0  0  0  0  0  0  0  0  0  0
   15.5366   -0.0054   15.6047 O   0  0  0  0  0  0  0  0  0  0  0  0
   16.7870    1.7759   16.4563 N   0  0  0  0  0  0  0  0  0  0  0  0
   18.2469    1.7529   16.5590 C   0  0  0  0  0  0  0  0  0  0  0  0
   18.8766    3.1506   16.6735 C   0  0  0  0  0  0  0  0  0  0  0  0
   18.3646    4.1431   15.7147 N   0  0  0  0  0  0  0  0  0  0  0  0
   16.8883    4.1729   15.7187 C   0  0  2  0  0  0  0  0  0  0  0  0
   16.3208    4.8213   16.9799 C   0  0  0  0  0  0  0  0  0  0  0  0
   16.2684    2.7694   15.4929 C   0  0  1  0  0  0  0  0  0  0  0  0
   16.4519    2.3908   14.0319 C   0  0  0  0  0  0  0  0  0  0  0  0
   15.5022    0.1231   18.8646 C   0  0  0  0  0  0  0  0  0  0  0  0
   15.5978   -0.6450   20.0174 C   0  0  0  0  0  0  0  0  0  0  0  0
   14.8708   -0.2959   21.0902 F   0  0  0  0  0  0  0  0  0  0  0  0
  1  2  1  0
  2  3  2  0
  3  4  1  0
  4  5  2  0
  5  6  1  0
  6  7  2  0
  6  8  1  0
  8  9  1  0
  9 10  1  0
 10 11  1  0
 11 12  1  0
 12 13  1  1
 12 14  1  0
 14 15  1  6
  5 16  1  0
 16 17  2  0
 17 18  1  0
 17  2  1  0
 14  8  1  0
M  END
>  <HIPPO ID>  (220) 
79064

>  <ref_url>  (220) 
None

>  <ref_pdb>  (220) 
c0300a

>  <inchikey>  (220) 
GCEYCIPYNZHZKA-GHMZBOCLSA-N

>  <original SMILES>  (220) 
Cc1ccc(C(=O)N2CCN[C@H](C)[C@H]2C)cc1F

>  <generation_date>  (220) 
None

>  <tags>  (220) 
[]

>  <ref_mols>  (220) 
c0398a,c0585a

>  <alias>  (220) 
None

>  <original ID>  (220) 
GCEYCIPYNZHZKA-GHMZBOCLSA-N

>  <exports>  (220) 
['/opt/xchem-fragalysis-2/maxwin/CHIKV_HIPPO/hippo_prod/CHIKV_prod11c_recipes/Recipe_1GJXW46_poses.sdf']

>  <method>  (220) 
None

>  <submitter_email>  (220) 
None

>  <submitter_name>  (220) 
None

$$$$
GCEYCIPYNZHZKA-QWRGUYRKSA-N
     RDKit          3D

 18 19  0  0  0  0  0  0  0  0999 V2000
   16.6876   -2.7097   20.9562 C   0  0  0  0  0  0  0  0  0  0  0  0
   16.3808   -1.7658   19.8367 C   0  0  0  0  0  0  0  0  0  0  0  0
   16.9929   -1.9445   18.5906 C   0  0  0  0  0  0  0  0  0  0  0  0
   16.8504   -0.9773   17.5940 C   0  0  0  0  0  0  0  0  0  0  0  0
   16.1176    0.1888   17.8464 C   0  0  0  0  0  0  0  0  0  0  0  0
   16.0876    1.3360   16.8950 C   0  0  0  0  0  0  0  0  0  0  0  0
   15.2133    2.1873   17.0176 O   0  0  0  0  0  0  0  0  0  0  0  0
   17.1032    1.4423   15.9322 N   0  0  0  0  0  0  0  0  0  0  0  0
   18.4861    1.5264   16.4124 C   0  0  0  0  0  0  0  0  0  0  0  0
   18.8928    2.9938   16.6893 C   0  0  0  0  0  0  0  0  0  0  0  0
   18.6506    3.9070   15.5516 N   0  0  0  0  0  0  0  0  0  0  0  0
   17.2276    3.8119   15.1468 C   0  0  1  0  0  0  0  0  0  0  0  0
   16.9863    4.7414   13.9619 C   0  0  0  0  0  0  0  0  0  0  0  0
   16.8828    2.3475   14.7870 C   0  0  2  0  0  0  0  0  0  0  0  0
   15.5024    2.2537   14.1682 C   0  0  0  0  0  0  0  0  0  0  0  0
   15.4204    0.3185   19.0502 C   0  0  0  0  0  0  0  0  0  0  0  0
   15.5622   -0.6510   20.0326 C   0  0  0  0  0  0  0  0  0  0  0  0
   14.9420   -0.4670   21.2075 F   0  0  0  0  0  0  0  0  0  0  0  0
  1  2  1  0
  2  3  2  0
  3  4  1  0
  4  5  2  0
  5  6  1  0
  6  7  2  0
  6  8  1  0
  8  9  1  0
  9 10  1  0
 10 11  1  0
 11 12  1  0
 12 13  1  6
 12 14  1  0
 14 15  1  1
  5 16  1  0
 16 17  2  0
 17 18  1  0
 17  2  1  0
 14  8  1  0
M  END
>  <HIPPO ID>  (221) 
79065

>  <ref_url>  (221) 
None

>  <ref_pdb>  (221) 
c0300a

>  <inchikey>  (221) 
GCEYCIPYNZHZKA-QWRGUYRKSA-N

>  <original SMILES>  (221) 
Cc1ccc(C(=O)N2CCN[C@@H](C)[C@@H]2C)cc1F

>  <generation_date>  (221) 
None

>  <tags>  (221) 
[]

>  <ref_mols>  (221) 
c0398a,c0585a

>  <alias>  (221) 
None

>  <original ID>  (221) 
GCEYCIPYNZHZKA-QWRGUYRKSA-N

>  <exports>  (221) 
['/opt/xchem-fragalysis-2/maxwin/CHIKV_HIPPO/hippo_prod/CHIKV_prod11c_recipes/Recipe_1GJXW46_poses.sdf']

>  <method>  (221) 
None

>  <submitter_email>  (221) 
None

>  <submitter_name>  (221) 
None

$$$$
GCEYCIPYNZHZKA-GHMZBOCLSA-N
     RDKit          3D

 18 19  0  0  0  0  0  0  0  0999 V2000
   16.6720   -2.5042   21.3935 C   0  0  0  0  0  0  0  0  0  0  0  0
   16.4632   -1.7729   20.1042 C   0  0  0  0  0  0  0  0  0  0  0  0
   17.1985   -2.1444   18.9700 C   0  0  0  0  0  0  0  0  0  0  0  0
   17.0916   -1.4048   17.7952 C   0  0  0  0  0  0  0  0  0  0  0  0
   16.2704   -0.2755   17.7678 C   0  0  0  0  0  0  0  0  0  0  0  0
   16.1431    0.4851   16.5197 C   0  0  0  0  0  0  0  0  0  0  0  0
   15.5114   -0.0544   15.6244 O   0  0  0  0  0  0  0  0  0  0  0  0
   16.7582    1.7292   16.4355 N   0  0  0  0  0  0  0  0  0  0  0  0
   18.0485    1.9914   17.0682 C   0  0  0  0  0  0  0  0  0  0  0  0
   18.9541    2.8558   16.1739 C   0  0  0  0  0  0  0  0  0  0  0  0
   18.3826    4.1518   15.7643 N   0  0  0  0  0  0  0  0  0  0  0  0
   16.9086    4.1431   15.7026 C   0  0  2  0  0  0  0  0  0  0  0  0
   16.3420    4.8350   16.9410 C   0  0  0  0  0  0  0  0  0  0  0  0
   16.2595    2.7488   15.4936 C   0  0  1  0  0  0  0  0  0  0  0  0
   16.4220    2.3554   14.0364 C   0  0  0  0  0  0  0  0  0  0  0  0
   15.4965    0.0840   18.8696 C   0  0  0  0  0  0  0  0  0  0  0  0
   15.6017   -0.6712   20.0294 C   0  0  0  0  0  0  0  0  0  0  0  0
   14.8721   -0.3189   21.0991 F   0  0  0  0  0  0  0  0  0  0  0  0
  1  2  1  0
  2  3  2  0
  3  4  1  0
  4  5  2  0
  5  6  1  0
  6  7  2  0
  6  8  1  0
  8  9  1  0
  9 10  1  0
 10 11  1  0
 11 12  1  0
 12 13  1  1
 12 14  1  0
 14 15  1  6
  5 16  1  0
 16 17  2  0
 17 18  1  0
 17  2  1  0
 14  8  1  0
M  END
>  <HIPPO ID>  (222) 
79066

>  <ref_url>  (222) 
None

>  <ref_pdb>  (222) 
c0300a

>  <inchikey>  (222) 
GCEYCIPYNZHZKA-GHMZBOCLSA-N

>  <original SMILES>  (222) 
Cc1ccc(C(=O)N2CCN[C@H](C)[C@H]2C)cc1F

>  <generation_date>  (222) 
None

>  <tags>  (222) 
[]

>  <ref_mols>  (222) 
c0398a,c0585a

>  <alias>  (222) 
None

>  <original ID>  (222) 
GCEYCIPYNZHZKA-GHMZBOCLSA-N

>  <exports>  (222) 
['/opt/xchem-fragalysis-2/maxwin/CHIKV_HIPPO/hippo_prod/CHIKV_prod11c_recipes/Recipe_1GJXW46_poses.sdf']

>  <method>  (222) 
None

>  <submitter_email>  (222) 
None

>  <submitter_name>  (222) 
None

$$$$
GCEYCIPYNZHZKA-WDEREUQCSA-N
     RDKit          3D

 18 19  0  0  0  0  0  0  0  0999 V2000
   16.6497   -2.4747   21.5456 C   0  0  0  0  0  0  0  0  0  0  0  0
   16.4486   -1.7771   20.2369 C   0  0  0  0  0  0  0  0  0  0  0  0
   17.1776   -2.1885   19.1135 C   0  0  0  0  0  0  0  0  0  0  0  0
   17.0709   -1.4836   17.9191 C   0  0  0  0  0  0  0  0  0  0  0  0
   16.2589   -0.3479   17.8619 C   0  0  0  0  0  0  0  0  0  0  0  0
   16.1130    0.3478   16.5823 C   0  0  0  0  0  0  0  0  0  0  0  0
   15.4788   -0.2404   15.7204 O   0  0  0  0  0  0  0  0  0  0  0  0
   16.7685    1.5797   16.4457 N   0  0  0  0  0  0  0  0  0  0  0  0
   18.2236    1.4883   16.3074 C   0  0  0  0  0  0  0  0  0  0  0  0
   18.9311    2.8534   16.2595 C   0  0  0  0  0  0  0  0  0  0  0  0
   18.3224    3.8250   15.3315 N   0  0  0  0  0  0  0  0  0  0  0  0
   16.8876    3.9515   15.6723 C   0  0  1  0  0  0  0  0  0  0  0  0
   16.2599    5.0122   14.7714 C   0  0  0  0  0  0  0  0  0  0  0  0
   16.1405    2.5955   15.5761 C   0  0  1  0  0  0  0  0  0  0  0  0
   15.9880    2.1777   14.1214 C   0  0  0  0  0  0  0  0  0  0  0  0
   15.4955    0.0550   18.9538 C   0  0  0  0  0  0  0  0  0  0  0  0
   15.5988   -0.6680   20.1333 C   0  0  0  0  0  0  0  0  0  0  0  0
   14.8717   -0.2824   21.1929 F   0  0  0  0  0  0  0  0  0  0  0  0
  1  2  1  0
  2  3  2  0
  3  4  1  0
  4  5  2  0
  5  6  1  0
  6  7  2  0
  6  8  1  0
  8  9  1  0
  9 10  1  0
 10 11  1  0
 11 12  1  0
 12 13  1  6
 12 14  1  0
 14 15  1  6
  5 16  1  0
 16 17  2  0
 17 18  1  0
 17  2  1  0
 14  8  1  0
M  END
>  <HIPPO ID>  (223) 
79067

>  <ref_url>  (223) 
None

>  <ref_pdb>  (223) 
c0300a

>  <inchikey>  (223) 
GCEYCIPYNZHZKA-WDEREUQCSA-N

>  <original SMILES>  (223) 
Cc1ccc(C(=O)N2CCN[C@@H](C)[C@H]2C)cc1F

>  <generation_date>  (223) 
None

>  <tags>  (223) 
[]

>  <ref_mols>  (223) 
c0398a,c0585a

>  <alias>  (223) 
None

>  <original ID>  (223) 
GCEYCIPYNZHZKA-WDEREUQCSA-N

>  <exports>  (223) 
['/opt/xchem-fragalysis-2/maxwin/CHIKV_HIPPO/hippo_prod/CHIKV_prod11c_recipes/Recipe_1GJXW46_poses.sdf']

>  <method>  (223) 
None

>  <submitter_email>  (223) 
None

>  <submitter_name>  (223) 
None

$$$$
BLXZQAGAEDUMNW-VIFPVBQESA-N
     RDKit          3D

 18 19  0  0  0  0  0  0  0  0999 V2000
   16.5951   -2.4011   21.4683 C   0  0  0  0  0  0  0  0  0  0  0  0
   16.3902   -1.7227   20.1495 C   0  0  0  0  0  0  0  0  0  0  0  0
   17.1477   -2.1264   19.0434 C   0  0  0  0  0  0  0  0  0  0  0  0
   17.0529   -1.4272   17.8451 C   0  0  0  0  0  0  0  0  0  0  0  0
   16.2166   -0.3083   17.7607 C   0  0  0  0  0  0  0  0  0  0  0  0
   16.1652    0.4092   16.4815 C   0  0  0  0  0  0  0  0  0  0  0  0
   15.5584   -0.1704   15.5936 O   0  0  0  0  0  0  0  0  0  0  0  0
   16.8684    1.6069   16.3363 N   0  0  0  0  0  0  0  0  0  0  0  0
   17.9216    1.9964   17.2846 C   0  0  0  0  0  0  0  0  0  0  0  0
   19.0786    2.7381   16.6008 C   0  0  0  0  0  0  0  0  0  0  0  0
   18.5874    3.8739   15.8616 N   0  0  0  0  0  0  0  0  0  0  0  0
   17.3901    3.7813   15.1974 C   0  0  0  0  0  0  0  0  0  0  0  0
   16.8725    4.7865   14.7180 O   0  0  0  0  0  0  0  0  0  0  0  0
   16.8396    2.3462   15.0422 C   0  0  2  0  0  0  0  0  0  0  0  0
   15.4815    2.4952   14.3832 C   0  0  0  0  0  0  0  0  0  0  0  0
   15.4152    0.0780   18.8308 C   0  0  0  0  0  0  0  0  0  0  0  0
   15.5145   -0.6355   20.0193 C   0  0  0  0  0  0  0  0  0  0  0  0
   14.7707   -0.2523   21.0682 F   0  0  0  0  0  0  0  0  0  0  0  0
  1  2  1  0
  2  3  2  0
  3  4  1  0
  4  5  2  0
  5  6  1  0
  6  7  2  0
  6  8  1  0
  8  9  1  0
  9 10  1  0
 10 11  1  0
 11 12  1  0
 12 13  2  0
 12 14  1  0
 14 15  1  1
  5 16  1  0
 16 17  2  0
 17 18  1  0
 17  2  1  0
 14  8  1  0
M  END
>  <HIPPO ID>  (224) 
79075

>  <ref_url>  (224) 
None

>  <ref_pdb>  (224) 
c0300a

>  <inchikey>  (224) 
BLXZQAGAEDUMNW-VIFPVBQESA-N

>  <original SMILES>  (224) 
Cc1ccc(C(=O)N2CCNC(=O)[C@@H]2C)cc1F

>  <generation_date>  (224) 
None

>  <tags>  (224) 
[]

>  <ref_mols>  (224) 
c0398a,c0585a

>  <alias>  (224) 
None

>  <original ID>  (224) 
BLXZQAGAEDUMNW-VIFPVBQESA-N

>  <exports>  (224) 
['/opt/xchem-fragalysis-2/maxwin/CHIKV_HIPPO/hippo_prod/CHIKV_prod11c_recipes/Recipe_1GJXW46_poses.sdf']

>  <method>  (224) 
None

>  <submitter_email>  (224) 
None

>  <submitter_name>  (224) 
None

$$$$
BLXZQAGAEDUMNW-SECBINFHSA-N
     RDKit          3D

 18 19  0  0  0  0  0  0  0  0999 V2000
   16.6658   -2.5015   21.5003 C   0  0  0  0  0  0  0  0  0  0  0  0
   16.4518   -1.8051   20.1928 C   0  0  0  0  0  0  0  0  0  0  0  0
   17.1671   -2.2189   19.0609 C   0  0  0  0  0  0  0  0  0  0  0  0
   17.0547   -1.5108   17.8683 C   0  0  0  0  0  0  0  0  0  0  0  0
   16.2500   -0.3702   17.8220 C   0  0  0  0  0  0  0  0  0  0  0  0
   16.1227    0.3571   16.5566 C   0  0  0  0  0  0  0  0  0  0  0  0
   15.4933   -0.1921   15.6678 O   0  0  0  0  0  0  0  0  0  0  0  0
   16.7563    1.5983   16.4749 N   0  0  0  0  0  0  0  0  0  0  0  0
   18.2164    1.5910   16.4637 C   0  0  0  0  0  0  0  0  0  0  0  0
   18.7829    2.9863   16.7139 C   0  0  0  0  0  0  0  0  0  0  0  0
   18.1563    4.0185   15.9131 N   0  0  0  0  0  0  0  0  0  0  0  0
   16.7981    3.9885   15.6973 C   0  0  0  0  0  0  0  0  0  0  0  0
   16.1902    5.0177   15.4080 O   0  0  0  0  0  0  0  0  0  0  0  0
   16.1431    2.6112   15.6030 C   0  0  1  0  0  0  0  0  0  0  0  0
   16.1256    2.2854   14.1212 C   0  0  0  0  0  0  0  0  0  0  0  0
   15.4970    0.0331   18.9219 C   0  0  0  0  0  0  0  0  0  0  0  0
   15.6054   -0.6930   20.0989 C   0  0  0  0  0  0  0  0  0  0  0  0
   14.8919   -0.3038   21.1664 F   0  0  0  0  0  0  0  0  0  0  0  0
  1  2  1  0
  2  3  2  0
  3  4  1  0
  4  5  2  0
  5  6  1  0
  6  7  2  0
  6  8  1  0
  8  9  1  0
  9 10  1  0
 10 11  1  0
 11 12  1  0
 12 13  2  0
 12 14  1  0
 14 15  1  6
  5 16  1  0
 16 17  2  0
 17 18  1  0
 17  2  1  0
 14  8  1  0
M  END
>  <HIPPO ID>  (225) 
79076

>  <ref_url>  (225) 
None

>  <ref_pdb>  (225) 
c0300a

>  <inchikey>  (225) 
BLXZQAGAEDUMNW-SECBINFHSA-N

>  <original SMILES>  (225) 
Cc1ccc(C(=O)N2CCNC(=O)[C@H]2C)cc1F

>  <generation_date>  (225) 
None

>  <tags>  (225) 
[]

>  <ref_mols>  (225) 
c0398a,c0585a

>  <alias>  (225) 
None

>  <original ID>  (225) 
BLXZQAGAEDUMNW-SECBINFHSA-N

>  <exports>  (225) 
['/opt/xchem-fragalysis-2/maxwin/CHIKV_HIPPO/hippo_prod/CHIKV_prod11c_recipes/Recipe_1GJXW46_poses.sdf']

>  <method>  (225) 
None

>  <submitter_email>  (225) 
None

>  <submitter_name>  (225) 
None

$$$$
YPBMGWXKIQRLCT-SSDOTTSWSA-N
     RDKit          3D

 18 19  0  0  0  0  0  0  0  0999 V2000
   15.9342    2.2277   14.1941 C   0  0  0  0  0  0  0  0  0  0  0  0
   16.0632    2.5217   15.6788 C   0  0  2  0  0  0  0  0  0  0  0  0
   16.8227    3.8360   15.7519 C   0  0  0  0  0  0  0  0  0  0  0  0
   16.2813    4.9106   15.4973 O   0  0  0  0  0  0  0  0  0  0  0  0
   18.1838    3.7361   15.8781 N   0  0  0  0  0  0  0  0  0  0  0  0
   18.8534    2.5471   15.7728 C   0  0  0  0  0  0  0  0  0  0  0  0
   19.9949    2.4927   15.3280 O   0  0  0  0  0  0  0  0  0  0  0  0
   18.1212    1.3060   16.2593 C   0  0  0  0  0  0  0  0  0  0  0  0
   16.6974    1.4880   16.5011 N   0  0  0  0  0  0  0  0  0  0  0  0
   16.0122    0.2746   16.6197 C   0  0  0  0  0  0  0  0  0  0  0  0
   15.4576   -0.3158   15.7069 O   0  0  0  0  0  0  0  0  0  0  0  0
   16.1012   -0.4036   17.9161 C   0  0  0  0  0  0  0  0  0  0  0  0
   16.8213   -1.6014   18.0003 C   0  0  0  0  0  0  0  0  0  0  0  0
   16.8547   -2.2996   19.2041 C   0  0  0  0  0  0  0  0  0  0  0  0
   16.1543   -1.8049   20.3032 C   0  0  0  0  0  0  0  0  0  0  0  0
   15.4169   -0.6272   20.1877 C   0  0  0  0  0  0  0  0  0  0  0  0
   14.7166   -0.1877   21.2418 F   0  0  0  0  0  0  0  0  0  0  0  0
   15.3841    0.0898   19.0018 C   0  0  0  0  0  0  0  0  0  0  0  0
  2  1  1  6
  2  3  1  0
  3  4  2  0
  3  5  1  0
  5  6  1  0
  6  7  2  0
  6  8  1  0
  8  9  1  0
  9 10  1  0
 10 11  2  0
 10 12  1  0
 12 13  2  0
 13 14  1  0
 14 15  2  0
 15 16  1  0
 16 17  1  0
 16 18  2  0
  9  2  1  0
 18 12  1  0
M  END
>  <HIPPO ID>  (226) 
79169

>  <ref_url>  (226) 
None

>  <ref_pdb>  (226) 
c0300a

>  <inchikey>  (226) 
YPBMGWXKIQRLCT-SSDOTTSWSA-N

>  <original SMILES>  (226) 
C[C@@H]1C(=O)NC(=O)CN1C(=O)c1cccc(F)c1

>  <generation_date>  (226) 
None

>  <tags>  (226) 
[]

>  <ref_mols>  (226) 
c0398a,c0585a

>  <alias>  (226) 
None

>  <original ID>  (226) 
YPBMGWXKIQRLCT-SSDOTTSWSA-N

>  <exports>  (226) 
['/opt/xchem-fragalysis-2/maxwin/CHIKV_HIPPO/hippo_prod/CHIKV_prod11_recipes/Recipe_1G8PPKY_poses.sdf', '/opt/xchem-fragalysis-2/maxwin/CHIKV_HIPPO/hippo_prod/CHIKV_prod11c_recipes/Recipe_1GJXW46_poses.sdf']

>  <method>  (226) 
None

>  <submitter_email>  (226) 
None

>  <submitter_name>  (226) 
None

$$$$
YPBMGWXKIQRLCT-SSDOTTSWSA-N
     RDKit          3D

 18 19  0  0  0  0  0  0  0  0999 V2000
   15.9499    2.2304   14.1836 C   0  0  0  0  0  0  0  0  0  0  0  0
   16.0544    2.5239   15.6695 C   0  0  2  0  0  0  0  0  0  0  0  0
   16.7897    3.8495   15.7582 C   0  0  0  0  0  0  0  0  0  0  0  0
   16.2372    4.9157   15.4924 O   0  0  0  0  0  0  0  0  0  0  0  0
   18.1479    3.7741   15.9218 N   0  0  0  0  0  0  0  0  0  0  0  0
   18.8506    2.6019   15.8488 C   0  0  0  0  0  0  0  0  0  0  0  0
   20.0179    2.5845   15.4728 O   0  0  0  0  0  0  0  0  0  0  0  0
   18.1211    1.3348   16.2681 C   0  0  0  0  0  0  0  0  0  0  0  0
   16.6932    1.4992   16.4990 N   0  0  0  0  0  0  0  0  0  0  0  0
   16.0186    0.2797   16.6151 C   0  0  0  0  0  0  0  0  0  0  0  0
   15.4613   -0.3100   15.7037 O   0  0  0  0  0  0  0  0  0  0  0  0
   16.1095   -0.4000   17.9107 C   0  0  0  0  0  0  0  0  0  0  0  0
   16.8290   -1.5982   17.9929 C   0  0  0  0  0  0  0  0  0  0  0  0
   16.8607   -2.2994   19.1952 C   0  0  0  0  0  0  0  0  0  0  0  0
   16.1590   -1.8074   20.2948 C   0  0  0  0  0  0  0  0  0  0  0  0
   15.4222   -0.6292   20.1813 C   0  0  0  0  0  0  0  0  0  0  0  0
   14.7206   -0.1920   21.2356 F   0  0  0  0  0  0  0  0  0  0  0  0
   15.3911    0.0906   18.9970 C   0  0  0  0  0  0  0  0  0  0  0  0
  2  1  1  6
  2  3  1  0
  3  4  2  0
  3  5  1  0
  5  6  1  0
  6  7  2  0
  6  8  1  0
  8  9  1  0
  9 10  1  0
 10 11  2  0
 10 12  1  0
 12 13  2  0
 13 14  1  0
 14 15  2  0
 15 16  1  0
 16 17  1  0
 16 18  2  0
  9  2  1  0
 18 12  1  0
M  END
>  <HIPPO ID>  (227) 
79170

>  <ref_url>  (227) 
None

>  <ref_pdb>  (227) 
c0300a

>  <inchikey>  (227) 
YPBMGWXKIQRLCT-SSDOTTSWSA-N

>  <original SMILES>  (227) 
C[C@@H]1C(=O)NC(=O)CN1C(=O)c1cccc(F)c1

>  <generation_date>  (227) 
None

>  <tags>  (227) 
[]

>  <ref_mols>  (227) 
c0398a,c0585a

>  <alias>  (227) 
None

>  <original ID>  (227) 
YPBMGWXKIQRLCT-SSDOTTSWSA-N

>  <exports>  (227) 
['/opt/xchem-fragalysis-2/maxwin/CHIKV_HIPPO/hippo_prod/CHIKV_prod11_recipes/Recipe_1G8PPKY_poses.sdf', '/opt/xchem-fragalysis-2/maxwin/CHIKV_HIPPO/hippo_prod/CHIKV_prod11c_recipes/Recipe_1GJXW46_poses.sdf']

>  <method>  (227) 
None

>  <submitter_email>  (227) 
None

>  <submitter_name>  (227) 
None

$$$$
DNLBZACSBADEPQ-ZCFIWIBFSA-N
     RDKit          3D

 19 20  0  0  0  0  0  0  0  0999 V2000
   15.9417    2.2513   14.1677 C   0  0  0  0  0  0  0  0  0  0  0  0
   16.0509    2.5381   15.6548 C   0  0  2  0  0  0  0  0  0  0  0  0
   16.7982    3.8569   15.7509 C   0  0  0  0  0  0  0  0  0  0  0  0
   16.2509    4.9301   15.5043 O   0  0  0  0  0  0  0  0  0  0  0  0
   18.1575    3.7677   15.8978 N   0  0  0  0  0  0  0  0  0  0  0  0
   18.8448    2.5879   15.8063 C   0  0  0  0  0  0  0  0  0  0  0  0
   20.0031    2.5547   15.4058 O   0  0  0  0  0  0  0  0  0  0  0  0
   18.1101    1.3311   16.2458 C   0  0  0  0  0  0  0  0  0  0  0  0
   16.6823    1.5034   16.4777 N   0  0  0  0  0  0  0  0  0  0  0  0
   15.9997    0.2900   16.5880 C   0  0  0  0  0  0  0  0  0  0  0  0
   15.4418   -0.3009   15.6773 O   0  0  0  0  0  0  0  0  0  0  0  0
   16.0951   -0.4022   17.8733 C   0  0  0  0  0  0  0  0  0  0  0  0
   15.3900    0.0702   18.9758 C   0  0  0  0  0  0  0  0  0  0  0  0
   15.4314   -0.6724   20.1467 C   0  0  0  0  0  0  0  0  0  0  0  0
   14.7486   -0.2453   21.2171 F   0  0  0  0  0  0  0  0  0  0  0  0
   16.1610   -1.8560   20.2316 C   0  0  0  0  0  0  0  0  0  0  0  0
   16.8418   -2.3185   19.1099 C   0  0  0  0  0  0  0  0  0  0  0  0
   17.7322   -3.7862   19.1795 Cl  0  0  0  0  0  0  0  0  0  0  0  0
   16.8104   -1.6003   17.9224 C   0  0  0  0  0  0  0  0  0  0  0  0
  2  1  1  6
  2  3  1  0
  3  4  2  0
  3  5  1  0
  5  6  1  0
  6  7  2  0
  6  8  1  0
  8  9  1  0
  9 10  1  0
 10 11  2  0
 10 12  1  0
 12 13  2  0
 13 14  1  0
 14 15  1  0
 14 16  2  0
 16 17  1  0
 17 18  1  0
 17 19  2  0
  9  2  1  0
 19 12  1  0
M  END
>  <HIPPO ID>  (228) 
79724

>  <ref_url>  (228) 
None

>  <ref_pdb>  (228) 
c0300a

>  <inchikey>  (228) 
DNLBZACSBADEPQ-ZCFIWIBFSA-N

>  <original SMILES>  (228) 
C[C@@H]1C(=O)NC(=O)CN1C(=O)c1cc(F)cc(Cl)c1

>  <generation_date>  (228) 
None

>  <tags>  (228) 
[]

>  <ref_mols>  (228) 
c0398a,c0585a

>  <alias>  (228) 
None

>  <original ID>  (228) 
DNLBZACSBADEPQ-ZCFIWIBFSA-N

>  <exports>  (228) 
['/opt/xchem-fragalysis-2/maxwin/CHIKV_HIPPO/hippo_prod/CHIKV_prod11c_recipes/Recipe_1GJXW46_poses.sdf']

>  <method>  (228) 
None

>  <submitter_email>  (228) 
None

>  <submitter_name>  (228) 
None

$$$$
DNLBZACSBADEPQ-ZCFIWIBFSA-N
     RDKit          3D

 19 20  0  0  0  0  0  0  0  0999 V2000
   15.9457    2.2632   14.1815 C   0  0  0  0  0  0  0  0  0  0  0  0
   16.0607    2.5427   15.6705 C   0  0  2  0  0  0  0  0  0  0  0  0
   16.8186    3.8562   15.7742 C   0  0  0  0  0  0  0  0  0  0  0  0
   16.2768    4.9364   15.5471 O   0  0  0  0  0  0  0  0  0  0  0  0
   18.1795    3.7544   15.9016 N   0  0  0  0  0  0  0  0  0  0  0  0
   18.8528    2.5680   15.7926 C   0  0  0  0  0  0  0  0  0  0  0  0
   20.0012    2.5215   15.3657 O   0  0  0  0  0  0  0  0  0  0  0  0
   18.1146    1.3196   16.2499 C   0  0  0  0  0  0  0  0  0  0  0  0
   16.6885    1.4999   16.4856 N   0  0  0  0  0  0  0  0  0  0  0  0
   15.9995    0.2898   16.5918 C   0  0  0  0  0  0  0  0  0  0  0  0
   15.4447   -0.2971   15.6767 O   0  0  0  0  0  0  0  0  0  0  0  0
   16.0910   -0.4052   17.8758 C   0  0  0  0  0  0  0  0  0  0  0  0
   15.3876    0.0680   18.9789 C   0  0  0  0  0  0  0  0  0  0  0  0
   15.4299   -0.6744   20.1499 C   0  0  0  0  0  0  0  0  0  0  0  0
   14.7488   -0.2462   21.2209 F   0  0  0  0  0  0  0  0  0  0  0  0
   16.1591   -1.8583   20.2343 C   0  0  0  0  0  0  0  0  0  0  0  0
   16.8382   -2.3215   19.1120 C   0  0  0  0  0  0  0  0  0  0  0  0
   17.7289   -3.7890   19.1809 Cl  0  0  0  0  0  0  0  0  0  0  0  0
   16.8057   -1.6036   17.9243 C   0  0  0  0  0  0  0  0  0  0  0  0
  2  1  1  6
  2  3  1  0
  3  4  2  0
  3  5  1  0
  5  6  1  0
  6  7  2  0
  6  8  1  0
  8  9  1  0
  9 10  1  0
 10 11  2  0
 10 12  1  0
 12 13  2  0
 13 14  1  0
 14 15  1  0
 14 16  2  0
 16 17  1  0
 17 18  1  0
 17 19  2  0
  9  2  1  0
 19 12  1  0
M  END
>  <HIPPO ID>  (229) 
79725

>  <ref_url>  (229) 
None

>  <ref_pdb>  (229) 
c0300a

>  <inchikey>  (229) 
DNLBZACSBADEPQ-ZCFIWIBFSA-N

>  <original SMILES>  (229) 
C[C@@H]1C(=O)NC(=O)CN1C(=O)c1cc(F)cc(Cl)c1

>  <generation_date>  (229) 
None

>  <tags>  (229) 
[]

>  <ref_mols>  (229) 
c0398a,c0585a

>  <alias>  (229) 
None

>  <original ID>  (229) 
DNLBZACSBADEPQ-ZCFIWIBFSA-N

>  <exports>  (229) 
['/opt/xchem-fragalysis-2/maxwin/CHIKV_HIPPO/hippo_prod/CHIKV_prod11c_recipes/Recipe_1GJXW46_poses.sdf']

>  <method>  (229) 
None

>  <submitter_email>  (229) 
None

>  <submitter_name>  (229) 
None

$$$$
JJENYPLIWXSJTC-MRVPVSSYSA-N
     RDKit          3D

 19 20  0  0  0  0  0  0  0  0999 V2000
   18.4702   -2.4810   16.7045 C   0  0  0  0  0  0  0  0  0  0  0  0
   18.3801   -1.1823   17.2556 O   0  0  0  0  0  0  0  0  0  0  0  0
   17.3346   -1.0770   18.1330 C   0  0  0  0  0  0  0  0  0  0  0  0
   17.3274   -1.7766   19.3411 C   0  0  0  0  0  0  0  0  0  0  0  0
   16.3055   -1.5481   20.2649 C   0  0  0  0  0  0  0  0  0  0  0  0
   15.3086   -0.6182   19.9787 C   0  0  0  0  0  0  0  0  0  0  0  0
   14.3731   -0.3522   20.8980 F   0  0  0  0  0  0  0  0  0  0  0  0
   15.2859    0.0616   18.7724 C   0  0  0  0  0  0  0  0  0  0  0  0
   16.3198   -0.1596   17.8618 C   0  0  0  0  0  0  0  0  0  0  0  0
   16.2147    0.4745   16.5482 C   0  0  0  0  0  0  0  0  0  0  0  0
   15.5165   -0.1122   15.7320 O   0  0  0  0  0  0  0  0  0  0  0  0
   16.8530    1.6860   16.3299 N   0  0  0  0  0  0  0  0  0  0  0  0
   18.0762    2.0967   17.0119 C   0  0  0  0  0  0  0  0  0  0  0  0
   18.9059    3.0045   16.1008 C   0  0  0  0  0  0  0  0  0  0  0  0
   18.1431    4.1765   15.7302 N   0  0  0  0  0  0  0  0  0  0  0  0
   16.7861    4.0992   15.5406 C   0  0  0  0  0  0  0  0  0  0  0  0
   16.1242    5.1039   15.2907 O   0  0  0  0  0  0  0  0  0  0  0  0
   16.1796    2.6922   15.4931 C   0  0  1  0  0  0  0  0  0  0  0  0
   16.1296    2.3289   14.0256 C   0  0  0  0  0  0  0  0  0  0  0  0
  1  2  1  0
  2  3  1  0
  3  4  2  0
  4  5  1  0
  5  6  2  0
  6  7  1  0
  6  8  1  0
  8  9  2  0
  9 10  1  0
 10 11  2  0
 10 12  1  0
 12 13  1  0
 13 14  1  0
 14 15  1  0
 15 16  1  0
 16 17  2  0
 16 18  1  0
 18 19  1  6
  9  3  1  0
 18 12  1  0
M  END
>  <HIPPO ID>  (230) 
80263

>  <ref_url>  (230) 
None

>  <ref_pdb>  (230) 
c0300a

>  <inchikey>  (230) 
JJENYPLIWXSJTC-MRVPVSSYSA-N

>  <original SMILES>  (230) 
COc1ccc(F)cc1C(=O)N1CCNC(=O)[C@H]1C

>  <generation_date>  (230) 
None

>  <tags>  (230) 
[]

>  <ref_mols>  (230) 
c0398a,c0585a

>  <alias>  (230) 
None

>  <original ID>  (230) 
JJENYPLIWXSJTC-MRVPVSSYSA-N

>  <exports>  (230) 
['/opt/xchem-fragalysis-2/maxwin/CHIKV_HIPPO/hippo_prod/CHIKV_prod11c_recipes/Recipe_1GJWBFH_poses.sdf', '/opt/xchem-fragalysis-2/maxwin/CHIKV_HIPPO/hippo_prod/CHIKV_prod11c_recipes/Recipe_1GJXK8G_poses.sdf', '/opt/xchem-fragalysis-2/maxwin/CHIKV_HIPPO/hippo_prod/CHIKV_prod11c_recipes/Recipe_1GJXW46_poses.sdf']

>  <method>  (230) 
None

>  <submitter_email>  (230) 
None

>  <submitter_name>  (230) 
None

$$$$
JJENYPLIWXSJTC-MRVPVSSYSA-N
     RDKit          3D

 19 20  0  0  0  0  0  0  0  0999 V2000
   18.4839   -2.4801   16.7055 C   0  0  0  0  0  0  0  0  0  0  0  0
   18.3799   -1.1799   17.2511 O   0  0  0  0  0  0  0  0  0  0  0  0
   17.3330   -1.0794   18.1273 C   0  0  0  0  0  0  0  0  0  0  0  0
   17.3276   -1.7774   19.3363 C   0  0  0  0  0  0  0  0  0  0  0  0
   16.3056   -1.5499   20.2604 C   0  0  0  0  0  0  0  0  0  0  0  0
   15.3067   -0.6225   19.9735 C   0  0  0  0  0  0  0  0  0  0  0  0
   14.3723   -0.3558   20.8938 F   0  0  0  0  0  0  0  0  0  0  0  0
   15.2814    0.0550   18.7661 C   0  0  0  0  0  0  0  0  0  0  0  0
   16.3152   -0.1654   17.8551 C   0  0  0  0  0  0  0  0  0  0  0  0
   16.2082    0.4676   16.5411 C   0  0  0  0  0  0  0  0  0  0  0  0
   15.5119   -0.1216   15.7250 O   0  0  0  0  0  0  0  0  0  0  0  0
   16.8435    1.6809   16.3222 N   0  0  0  0  0  0  0  0  0  0  0  0
   18.0617    2.0971   17.0091 C   0  0  0  0  0  0  0  0  0  0  0  0
   18.8893    3.0116   16.1033 C   0  0  0  0  0  0  0  0  0  0  0  0
   18.1213    4.1805   15.7348 N   0  0  0  0  0  0  0  0  0  0  0  0
   16.7678    4.0930   15.5258 C   0  0  0  0  0  0  0  0  0  0  0  0
   16.1039    5.0920   15.2593 O   0  0  0  0  0  0  0  0  0  0  0  0
   16.1689    2.6836   15.4821 C   0  0  1  0  0  0  0  0  0  0  0  0
   16.1225    2.3186   14.0156 C   0  0  0  0  0  0  0  0  0  0  0  0
  1  2  1  0
  2  3  1  0
  3  4  2  0
  4  5  1  0
  5  6  2  0
  6  7  1  0
  6  8  1  0
  8  9  2  0
  9 10  1  0
 10 11  2  0
 10 12  1  0
 12 13  1  0
 13 14  1  0
 14 15  1  0
 15 16  1  0
 16 17  2  0
 16 18  1  0
 18 19  1  6
  9  3  1  0
 18 12  1  0
M  END
>  <HIPPO ID>  (231) 
80264

>  <ref_url>  (231) 
None

>  <ref_pdb>  (231) 
c0300a

>  <inchikey>  (231) 
JJENYPLIWXSJTC-MRVPVSSYSA-N

>  <original SMILES>  (231) 
COc1ccc(F)cc1C(=O)N1CCNC(=O)[C@H]1C

>  <generation_date>  (231) 
None

>  <tags>  (231) 
[]

>  <ref_mols>  (231) 
c0398a,c0585a

>  <alias>  (231) 
None

>  <original ID>  (231) 
JJENYPLIWXSJTC-MRVPVSSYSA-N

>  <exports>  (231) 
['/opt/xchem-fragalysis-2/maxwin/CHIKV_HIPPO/hippo_prod/CHIKV_prod11c_recipes/Recipe_1GJWBFH_poses.sdf', '/opt/xchem-fragalysis-2/maxwin/CHIKV_HIPPO/hippo_prod/CHIKV_prod11c_recipes/Recipe_1GJXK8G_poses.sdf', '/opt/xchem-fragalysis-2/maxwin/CHIKV_HIPPO/hippo_prod/CHIKV_prod11c_recipes/Recipe_1GJXW46_poses.sdf']

>  <method>  (231) 
None

>  <submitter_email>  (231) 
None

>  <submitter_name>  (231) 
None

$$$$
SZKWZDPNGMZJHH-ZJUUUORDSA-N
     RDKit          3D

 19 20  0  0  0  0  0  0  0  0999 V2000
   18.4676   -2.4313   16.7408 C   0  0  0  0  0  0  0  0  0  0  0  0
   18.3051   -1.1207   17.2459 O   0  0  0  0  0  0  0  0  0  0  0  0
   17.2326   -1.0131   18.0912 C   0  0  0  0  0  0  0  0  0  0  0  0
   17.1699   -1.7392   19.2819 C   0  0  0  0  0  0  0  0  0  0  0  0
   16.1301   -1.4985   20.1794 C   0  0  0  0  0  0  0  0  0  0  0  0
   15.1684   -0.5343   19.8835 C   0  0  0  0  0  0  0  0  0  0  0  0
   14.2131   -0.2715   20.7845 F   0  0  0  0  0  0  0  0  0  0  0  0
   15.2010    0.1782   18.6929 C   0  0  0  0  0  0  0  0  0  0  0  0
   16.2544   -0.0517   17.8087 C   0  0  0  0  0  0  0  0  0  0  0  0
   16.2451    0.6134   16.4982 C   0  0  0  0  0  0  0  0  0  0  0  0
   15.6359    0.0051   15.6276 O   0  0  0  0  0  0  0  0  0  0  0  0
   16.9235    1.8371   16.3343 N   0  0  0  0  0  0  0  0  0  0  0  0
   18.2099    1.9764   17.0275 C   0  0  0  0  0  0  0  0  0  0  0  0
   18.8103    3.3869   16.9833 C   0  0  0  0  0  0  0  0  0  0  0  0
   18.8114    3.9927   15.6488 N   0  0  0  0  0  0  0  0  0  0  0  0
   17.4647    3.9481   15.0611 C   0  0  2  0  0  0  0  0  0  0  0  0
   16.5174    4.9274   15.7784 C   0  0  0  0  0  0  0  0  0  0  0  0
   16.9095    2.4886   14.9990 C   0  0  2  0  0  0  0  0  0  0  0  0
   15.5430    2.5572   14.3250 C   0  0  0  0  0  0  0  0  0  0  0  0
  1  2  1  0
  2  3  1  0
  3  4  2  0
  4  5  1  0
  5  6  2  0
  6  7  1  0
  6  8  1  0
  8  9  2  0
  9 10  1  0
 10 11  2  0
 10 12  1  0
 12 13  1  0
 13 14  1  0
 14 15  1  0
 15 16  1  0
 16 17  1  1
 16 18  1  0
 18 19  1  1
  9  3  1  0
 18 12  1  0
M  END
>  <HIPPO ID>  (232) 
80415

>  <ref_url>  (232) 
None

>  <ref_pdb>  (232) 
c0300a

>  <inchikey>  (232) 
SZKWZDPNGMZJHH-ZJUUUORDSA-N

>  <original SMILES>  (232) 
COc1ccc(F)cc1C(=O)N1CCN[C@H](C)[C@@H]1C

>  <generation_date>  (232) 
None

>  <tags>  (232) 
[]

>  <ref_mols>  (232) 
c0398a,c0585a

>  <alias>  (232) 
None

>  <original ID>  (232) 
SZKWZDPNGMZJHH-ZJUUUORDSA-N

>  <exports>  (232) 
['/opt/xchem-fragalysis-2/maxwin/CHIKV_HIPPO/hippo_prod/CHIKV_prod11c_recipes/Recipe_1GJWBFH_poses.sdf', '/opt/xchem-fragalysis-2/maxwin/CHIKV_HIPPO/hippo_prod/CHIKV_prod11c_recipes/Recipe_1GJXK8G_poses.sdf', '/opt/xchem-fragalysis-2/maxwin/CHIKV_HIPPO/hippo_prod/CHIKV_prod11c_recipes/Recipe_1GJXW46_poses.sdf']

>  <method>  (232) 
None

>  <submitter_email>  (232) 
None

>  <submitter_name>  (232) 
None

$$$$
SZKWZDPNGMZJHH-VHSXEESVSA-N
     RDKit          3D

 19 20  0  0  0  0  0  0  0  0999 V2000
   19.0586   -2.4172   17.0776 C   0  0  0  0  0  0  0  0  0  0  0  0
   17.7578   -1.9187   16.8069 O   0  0  0  0  0  0  0  0  0  0  0  0
   17.0466   -1.5439   17.9154 C   0  0  0  0  0  0  0  0  0  0  0  0
   17.0415   -2.2712   19.1079 C   0  0  0  0  0  0  0  0  0  0  0  0
   16.2566   -1.8439   20.1832 C   0  0  0  0  0  0  0  0  0  0  0  0
   15.4658   -0.7050   20.0599 C   0  0  0  0  0  0  0  0  0  0  0  0
   14.7094   -0.3125   21.0936 F   0  0  0  0  0  0  0  0  0  0  0  0
   15.4431    0.0227   18.8830 C   0  0  0  0  0  0  0  0  0  0  0  0
   16.2446   -0.4004   17.8195 C   0  0  0  0  0  0  0  0  0  0  0  0
   16.1101    0.3101   16.5458 C   0  0  0  0  0  0  0  0  0  0  0  0
   15.4058   -0.2372   15.7093 O   0  0  0  0  0  0  0  0  0  0  0  0
   16.7346    1.5453   16.4086 N   0  0  0  0  0  0  0  0  0  0  0  0
   18.0467    1.8323   16.9823 C   0  0  0  0  0  0  0  0  0  0  0  0
   18.9442    2.5715   15.9660 C   0  0  0  0  0  0  0  0  0  0  0  0
   18.3752    3.8074   15.3808 N   0  0  0  0  0  0  0  0  0  0  0  0
   16.9311    3.9281   15.6725 C   0  0  1  0  0  0  0  0  0  0  0  0
   16.3260    5.0153   14.7863 C   0  0  0  0  0  0  0  0  0  0  0  0
   16.1613    2.5884   15.5401 C   0  0  1  0  0  0  0  0  0  0  0  0
   16.0630    2.1781   14.0844 C   0  0  0  0  0  0  0  0  0  0  0  0
  1  2  1  0
  2  3  1  0
  3  4  2  0
  4  5  1  0
  5  6  2  0
  6  7  1  0
  6  8  1  0
  8  9  2  0
  9 10  1  0
 10 11  2  0
 10 12  1  0
 12 13  1  0
 13 14  1  0
 14 15  1  0
 15 16  1  0
 16 17  1  6
 16 18  1  0
 18 19  1  6
  9  3  1  0
 18 12  1  0
M  END
>  <HIPPO ID>  (233) 
80416

>  <ref_url>  (233) 
None

>  <ref_pdb>  (233) 
c0300a

>  <inchikey>  (233) 
SZKWZDPNGMZJHH-VHSXEESVSA-N

>  <original SMILES>  (233) 
COc1ccc(F)cc1C(=O)N1CCN[C@@H](C)[C@H]1C

>  <generation_date>  (233) 
None

>  <tags>  (233) 
[]

>  <ref_mols>  (233) 
c0398a,c0585a

>  <alias>  (233) 
None

>  <original ID>  (233) 
SZKWZDPNGMZJHH-VHSXEESVSA-N

>  <exports>  (233) 
['/opt/xchem-fragalysis-2/maxwin/CHIKV_HIPPO/hippo_prod/CHIKV_prod11c_recipes/Recipe_1GJWBFH_poses.sdf', '/opt/xchem-fragalysis-2/maxwin/CHIKV_HIPPO/hippo_prod/CHIKV_prod11c_recipes/Recipe_1GJXK8G_poses.sdf', '/opt/xchem-fragalysis-2/maxwin/CHIKV_HIPPO/hippo_prod/CHIKV_prod11c_recipes/Recipe_1GJXW46_poses.sdf']

>  <method>  (233) 
None

>  <submitter_email>  (233) 
None

>  <submitter_name>  (233) 
None

$$$$
SZKWZDPNGMZJHH-NXEZZACHSA-N
     RDKit          3D

 19 20  0  0  0  0  0  0  0  0999 V2000
   18.4893   -2.4302   16.6912 C   0  0  0  0  0  0  0  0  0  0  0  0
   18.3079   -1.1155   17.1785 O   0  0  0  0  0  0  0  0  0  0  0  0
   17.2726   -1.0211   18.0701 C   0  0  0  0  0  0  0  0  0  0  0  0
   17.2431   -1.7675   19.2508 C   0  0  0  0  0  0  0  0  0  0  0  0
   16.2313   -1.5431   20.1867 C   0  0  0  0  0  0  0  0  0  0  0  0
   15.2647   -0.5710   19.9414 C   0  0  0  0  0  0  0  0  0  0  0  0
   14.3360   -0.3189   20.8721 F   0  0  0  0  0  0  0  0  0  0  0  0
   15.2649    0.1619   18.7656 C   0  0  0  0  0  0  0  0  0  0  0  0
   16.2882   -0.0561   17.8420 C   0  0  0  0  0  0  0  0  0  0  0  0
   16.2043    0.6344   16.5518 C   0  0  0  0  0  0  0  0  0  0  0  0
   15.5795    0.0498   15.6769 O   0  0  0  0  0  0  0  0  0  0  0  0
   16.7832    1.8916   16.4257 N   0  0  0  0  0  0  0  0  0  0  0  0
   18.0353    2.2452   17.0904 C   0  0  0  0  0  0  0  0  0  0  0  0
   18.9458    3.0764   16.1713 C   0  0  0  0  0  0  0  0  0  0  0  0
   18.3494    4.3178   15.6364 N   0  0  0  0  0  0  0  0  0  0  0  0
   16.8751    4.2661   15.5741 C   0  0  2  0  0  0  0  0  0  0  0  0
   16.2757    5.0018   16.7717 C   0  0  0  0  0  0  0  0  0  0  0  0
   16.2743    2.8440   15.4240 C   0  0  1  0  0  0  0  0  0  0  0  0
   16.4890    2.3783   13.9959 C   0  0  0  0  0  0  0  0  0  0  0  0
  1  2  1  0
  2  3  1  0
  3  4  2  0
  4  5  1  0
  5  6  2  0
  6  7  1  0
  6  8  1  0
  8  9  2  0
  9 10  1  0
 10 11  2  0
 10 12  1  0
 12 13  1  0
 13 14  1  0
 14 15  1  0
 15 16  1  0
 16 17  1  1
 16 18  1  0
 18 19  1  6
  9  3  1  0
 18 12  1  0
M  END
>  <HIPPO ID>  (234) 
80417

>  <ref_url>  (234) 
None

>  <ref_pdb>  (234) 
c0300a

>  <inchikey>  (234) 
SZKWZDPNGMZJHH-NXEZZACHSA-N

>  <original SMILES>  (234) 
COc1ccc(F)cc1C(=O)N1CCN[C@H](C)[C@H]1C

>  <generation_date>  (234) 
None

>  <tags>  (234) 
[]

>  <ref_mols>  (234) 
c0398a,c0585a

>  <alias>  (234) 
None

>  <original ID>  (234) 
SZKWZDPNGMZJHH-NXEZZACHSA-N

>  <exports>  (234) 
['/opt/xchem-fragalysis-2/maxwin/CHIKV_HIPPO/hippo_prod/CHIKV_prod11c_recipes/Recipe_1GJWBFH_poses.sdf', '/opt/xchem-fragalysis-2/maxwin/CHIKV_HIPPO/hippo_prod/CHIKV_prod11c_recipes/Recipe_1GJXK8G_poses.sdf', '/opt/xchem-fragalysis-2/maxwin/CHIKV_HIPPO/hippo_prod/CHIKV_prod11c_recipes/Recipe_1GJXW46_poses.sdf']

>  <method>  (234) 
None

>  <submitter_email>  (234) 
None

>  <submitter_name>  (234) 
None

$$$$
SZKWZDPNGMZJHH-VHSXEESVSA-N
     RDKit          3D

 19 20  0  0  0  0  0  0  0  0999 V2000
   18.4472   -2.4200   16.8171 C   0  0  0  0  0  0  0  0  0  0  0  0
   18.3557   -1.1279   17.3908 O   0  0  0  0  0  0  0  0  0  0  0  0
   17.2746   -1.0338   18.2260 C   0  0  0  0  0  0  0  0  0  0  0  0
   17.2722   -1.6712   19.4654 C   0  0  0  0  0  0  0  0  0  0  0  0
   16.2170   -1.4437   20.3494 C   0  0  0  0  0  0  0  0  0  0  0  0
   15.1827   -0.5802   19.9889 C   0  0  0  0  0  0  0  0  0  0  0  0
   14.2231   -0.3017   20.8792 F   0  0  0  0  0  0  0  0  0  0  0  0
   15.1486    0.0268   18.7444 C   0  0  0  0  0  0  0  0  0  0  0  0
   16.2157   -0.1918   17.8779 C   0  0  0  0  0  0  0  0  0  0  0  0
   16.1730    0.3762   16.5350 C   0  0  0  0  0  0  0  0  0  0  0  0
   15.5186   -0.2637   15.7188 O   0  0  0  0  0  0  0  0  0  0  0  0
   16.9064    1.5223   16.2552 N   0  0  0  0  0  0  0  0  0  0  0  0
   17.6288    2.3297   17.2335 C   0  0  0  0  0  0  0  0  0  0  0  0
   17.0021    3.7356   17.3481 C   0  0  0  0  0  0  0  0  0  0  0  0
   16.6941    4.4246   16.0719 N   0  0  0  0  0  0  0  0  0  0  0  0
   15.9500    3.4970   15.1829 C   0  0  1  0  0  0  0  0  0  0  0  0
   15.6099    4.1840   13.8675 C   0  0  0  0  0  0  0  0  0  0  0  0
   16.7172    2.1722   14.9547 C   0  0  1  0  0  0  0  0  0  0  0  0
   18.0493    2.3927   14.2505 C   0  0  0  0  0  0  0  0  0  0  0  0
  1  2  1  0
  2  3  1  0
  3  4  2  0
  4  5  1  0
  5  6  2  0
  6  7  1  0
  6  8  1  0
  8  9  2  0
  9 10  1  0
 10 11  2  0
 10 12  1  0
 12 13  1  0
 13 14  1  0
 14 15  1  0
 15 16  1  0
 16 17  1  6
 16 18  1  0
 18 19  1  1
  9  3  1  0
 18 12  1  0
M  END
>  <HIPPO ID>  (235) 
80418

>  <ref_url>  (235) 
None

>  <ref_pdb>  (235) 
c0300a

>  <inchikey>  (235) 
SZKWZDPNGMZJHH-VHSXEESVSA-N

>  <original SMILES>  (235) 
COc1ccc(F)cc1C(=O)N1CCN[C@@H](C)[C@H]1C

>  <generation_date>  (235) 
None

>  <tags>  (235) 
[]

>  <ref_mols>  (235) 
c0398a,c0585a

>  <alias>  (235) 
None

>  <original ID>  (235) 
SZKWZDPNGMZJHH-VHSXEESVSA-N

>  <exports>  (235) 
['/opt/xchem-fragalysis-2/maxwin/CHIKV_HIPPO/hippo_prod/CHIKV_prod11c_recipes/Recipe_1GJWBFH_poses.sdf', '/opt/xchem-fragalysis-2/maxwin/CHIKV_HIPPO/hippo_prod/CHIKV_prod11c_recipes/Recipe_1GJXK8G_poses.sdf', '/opt/xchem-fragalysis-2/maxwin/CHIKV_HIPPO/hippo_prod/CHIKV_prod11c_recipes/Recipe_1GJXW46_poses.sdf']

>  <method>  (235) 
None

>  <submitter_email>  (235) 
None

>  <submitter_name>  (235) 
None

$$$$
FOWXQTXOOVBNJW-ZCFIWIBFSA-N
     RDKit          3D

 19 20  0  0  0  0  0  0  0  0999 V2000
   16.0744    2.3021   14.0507 C   0  0  0  0  0  0  0  0  0  0  0  0
   16.1891    2.5737   15.5353 C   0  0  2  0  0  0  0  0  0  0  0  0
   16.8500    3.9538   15.6295 C   0  0  0  0  0  0  0  0  0  0  0  0
   16.2297    4.9883   15.3946 O   0  0  0  0  0  0  0  0  0  0  0  0
   18.2040    3.9744   15.8468 N   0  0  0  0  0  0  0  0  0  0  0  0
   18.9346    2.7588   16.1274 C   0  0  0  0  0  0  0  0  0  0  0  0
   18.0871    1.8111   16.9813 C   0  0  0  0  0  0  0  0  0  0  0  0
   16.8439    1.4882   16.2902 N   0  0  0  0  0  0  0  0  0  0  0  0
   16.1448    0.3022   16.4746 C   0  0  0  0  0  0  0  0  0  0  0  0
   15.4141   -0.2155   15.6435 O   0  0  0  0  0  0  0  0  0  0  0  0
   16.2596   -0.3995   17.7550 C   0  0  0  0  0  0  0  0  0  0  0  0
   15.3715    0.0015   18.7612 C   0  0  0  0  0  0  0  0  0  0  0  0
   15.3680   -0.6911   19.9574 C   0  0  0  0  0  0  0  0  0  0  0  0
   14.5565   -0.2963   20.9482 F   0  0  0  0  0  0  0  0  0  0  0  0
   16.2042   -1.7859   20.1315 C   0  0  0  0  0  0  0  0  0  0  0  0
   16.1979   -2.4531   21.2910 F   0  0  0  0  0  0  0  0  0  0  0  0
   17.0673   -2.1998   19.1189 C   0  0  0  0  0  0  0  0  0  0  0  0
   17.1435   -1.4822   17.9229 C   0  0  0  0  0  0  0  0  0  0  0  0
   17.9472   -1.9780   16.8827 N   0  0  0  0  0  0  0  0  0  0  0  0
  2  1  1  6
  2  3  1  0
  3  4  2  0
  3  5  1  0
  5  6  1  0
  6  7  1  0
  7  8  1  0
  8  9  1  0
  9 10  2  0
  9 11  1  0
 11 12  2  0
 12 13  1  0
 13 14  1  0
 13 15  2  0
 15 16  1  0
 15 17  1  0
 17 18  2  0
 18 19  1  0
  8  2  1  0
 18 11  1  0
M  END
>  <HIPPO ID>  (236) 
80889

>  <ref_url>  (236) 
None

>  <ref_pdb>  (236) 
c0300a

>  <inchikey>  (236) 
FOWXQTXOOVBNJW-ZCFIWIBFSA-N

>  <original SMILES>  (236) 
C[C@@H]1C(=O)NCCN1C(=O)c1cc(F)c(F)cc1N

>  <generation_date>  (236) 
None

>  <tags>  (236) 
[]

>  <ref_mols>  (236) 
c0398a,c0585a

>  <alias>  (236) 
None

>  <original ID>  (236) 
FOWXQTXOOVBNJW-ZCFIWIBFSA-N

>  <exports>  (236) 
['/opt/xchem-fragalysis-2/maxwin/CHIKV_HIPPO/hippo_prod/CHIKV_prod11c_recipes/Recipe_1GJWBFH_poses.sdf', '/opt/xchem-fragalysis-2/maxwin/CHIKV_HIPPO/hippo_prod/CHIKV_prod11c_recipes/Recipe_1GJXK8G_poses.sdf', '/opt/xchem-fragalysis-2/maxwin/CHIKV_HIPPO/hippo_prod/CHIKV_prod11c_recipes/Recipe_1GJXW46_poses.sdf']

>  <method>  (236) 
None

>  <submitter_email>  (236) 
None

>  <submitter_name>  (236) 
None

$$$$
FOWXQTXOOVBNJW-LURJTMIESA-N
     RDKit          3D

 19 20  0  0  0  0  0  0  0  0999 V2000
   15.4921    2.5117   14.3742 C   0  0  0  0  0  0  0  0  0  0  0  0
   16.8545    2.3604   15.0253 C   0  0  1  0  0  0  0  0  0  0  0  0
   17.3871    3.7976   15.2200 C   0  0  0  0  0  0  0  0  0  0  0  0
   16.8464    4.8112   14.7868 O   0  0  0  0  0  0  0  0  0  0  0  0
   18.5903    3.8865   15.8748 N   0  0  0  0  0  0  0  0  0  0  0  0
   19.0935    2.7411   16.5902 C   0  0  0  0  0  0  0  0  0  0  0  0
   17.9441    1.9762   17.2608 C   0  0  0  0  0  0  0  0  0  0  0  0
   16.8968    1.5926   16.3041 N   0  0  0  0  0  0  0  0  0  0  0  0
   16.1675    0.4111   16.4479 C   0  0  0  0  0  0  0  0  0  0  0  0
   15.5391   -0.1448   15.5601 O   0  0  0  0  0  0  0  0  0  0  0  0
   16.1852   -0.3014   17.7320 C   0  0  0  0  0  0  0  0  0  0  0  0
   15.2747    0.1019   18.7137 C   0  0  0  0  0  0  0  0  0  0  0  0
   15.2425   -0.5951   19.9097 C   0  0  0  0  0  0  0  0  0  0  0  0
   14.4142   -0.1996   20.8865 F   0  0  0  0  0  0  0  0  0  0  0  0
   16.0722   -1.6929   20.1061 C   0  0  0  0  0  0  0  0  0  0  0  0
   16.0454   -2.3523   21.2701 F   0  0  0  0  0  0  0  0  0  0  0  0
   16.9539   -2.1139   19.1156 C   0  0  0  0  0  0  0  0  0  0  0  0
   17.0593   -1.3950   17.9239 C   0  0  0  0  0  0  0  0  0  0  0  0
   17.8947   -1.8918   16.9079 N   0  0  0  0  0  0  0  0  0  0  0  0
  2  1  1  1
  2  3  1  0
  3  4  2  0
  3  5  1  0
  5  6  1  0
  6  7  1  0
  7  8  1  0
  8  9  1  0
  9 10  2  0
  9 11  1  0
 11 12  2  0
 12 13  1  0
 13 14  1  0
 13 15  2  0
 15 16  1  0
 15 17  1  0
 17 18  2  0
 18 19  1  0
  8  2  1  0
 18 11  1  0
M  END
>  <HIPPO ID>  (237) 
80890

>  <ref_url>  (237) 
None

>  <ref_pdb>  (237) 
c0300a

>  <inchikey>  (237) 
FOWXQTXOOVBNJW-LURJTMIESA-N

>  <original SMILES>  (237) 
C[C@H]1C(=O)NCCN1C(=O)c1cc(F)c(F)cc1N

>  <generation_date>  (237) 
None

>  <tags>  (237) 
[]

>  <ref_mols>  (237) 
c0398a,c0585a

>  <alias>  (237) 
None

>  <original ID>  (237) 
FOWXQTXOOVBNJW-LURJTMIESA-N

>  <exports>  (237) 
['/opt/xchem-fragalysis-2/maxwin/CHIKV_HIPPO/hippo_prod/CHIKV_prod11c_recipes/Recipe_1GJWBFH_poses.sdf', '/opt/xchem-fragalysis-2/maxwin/CHIKV_HIPPO/hippo_prod/CHIKV_prod11c_recipes/Recipe_1GJXK8G_poses.sdf', '/opt/xchem-fragalysis-2/maxwin/CHIKV_HIPPO/hippo_prod/CHIKV_prod11c_recipes/Recipe_1GJXW46_poses.sdf']

>  <method>  (237) 
None

>  <submitter_email>  (237) 
None

>  <submitter_name>  (237) 
None

$$$$
XYWUIZPDIWGKRQ-JGVFFNPUSA-N
     RDKit          3D

 19 20  0  0  0  0  0  0  0  0999 V2000
   16.1750    5.0817   14.7639 C   0  0  0  0  0  0  0  0  0  0  0  0
   16.7770    4.0591   15.7244 C   0  0  2  0  0  0  0  0  0  0  0  0
   18.2458    4.0387   15.5601 N   0  0  0  0  0  0  0  0  0  0  0  0
   18.8088    3.1224   16.5694 C   0  0  0  0  0  0  0  0  0  0  0  0
   18.2115    1.7036   16.5395 C   0  0  0  0  0  0  0  0  0  0  0  0
   16.7479    1.6779   16.4724 N   0  0  0  0  0  0  0  0  0  0  0  0
   16.1418    0.4172   16.5607 C   0  0  0  0  0  0  0  0  0  0  0  0
   15.5079   -0.1428   15.6797 O   0  0  0  0  0  0  0  0  0  0  0  0
   16.2568   -0.3016   17.8323 C   0  0  0  0  0  0  0  0  0  0  0  0
   15.3747    0.0873   18.8469 C   0  0  0  0  0  0  0  0  0  0  0  0
   15.3644   -0.6321   20.0271 C   0  0  0  0  0  0  0  0  0  0  0  0
   14.5498   -0.2557   21.0225 F   0  0  0  0  0  0  0  0  0  0  0  0
   16.1926   -1.7364   20.1799 C   0  0  0  0  0  0  0  0  0  0  0  0
   16.1775   -2.4295   21.3242 F   0  0  0  0  0  0  0  0  0  0  0  0
   17.0561   -2.1339   19.1619 C   0  0  0  0  0  0  0  0  0  0  0  0
   17.1354   -1.3943   17.9796 C   0  0  0  0  0  0  0  0  0  0  0  0
   17.9444   -1.8756   16.9359 N   0  0  0  0  0  0  0  0  0  0  0  0
   16.1540    2.6548   15.5376 C   0  0  2  0  0  0  0  0  0  0  0  0
   16.2033    2.2243   14.0810 C   0  0  0  0  0  0  0  0  0  0  0  0
  2  1  1  6
  2  3  1  0
  3  4  1  0
  4  5  1  0
  5  6  1  0
  6  7  1  0
  7  8  2  0
  7  9  1  0
  9 10  2  0
 10 11  1  0
 11 12  1  0
 11 13  2  0
 13 14  1  0
 13 15  1  0
 15 16  2  0
 16 17  1  0
  6 18  1  0
 18 19  1  6
 18  2  1  0
 16  9  1  0
M  END
>  <HIPPO ID>  (238) 
80910

>  <ref_url>  (238) 
None

>  <ref_pdb>  (238) 
c0300a

>  <inchikey>  (238) 
XYWUIZPDIWGKRQ-JGVFFNPUSA-N

>  <original SMILES>  (238) 
C[C@@H]1NCCN(C(=O)c2cc(F)c(F)cc2N)[C@@H]1C

>  <generation_date>  (238) 
None

>  <tags>  (238) 
[]

>  <ref_mols>  (238) 
c0398a,c0585a

>  <alias>  (238) 
None

>  <original ID>  (238) 
XYWUIZPDIWGKRQ-JGVFFNPUSA-N

>  <exports>  (238) 
['/opt/xchem-fragalysis-2/maxwin/CHIKV_HIPPO/hippo_prod/CHIKV_prod11c_recipes/Recipe_1GJWBFH_poses.sdf', '/opt/xchem-fragalysis-2/maxwin/CHIKV_HIPPO/hippo_prod/CHIKV_prod11c_recipes/Recipe_1GJXK8G_poses.sdf', '/opt/xchem-fragalysis-2/maxwin/CHIKV_HIPPO/hippo_prod/CHIKV_prod11c_recipes/Recipe_1GJXW46_poses.sdf']

>  <method>  (238) 
None

>  <submitter_email>  (238) 
None

>  <submitter_name>  (238) 
None

$$$$
XYWUIZPDIWGKRQ-HTQZYQBOSA-N
     RDKit          3D

 19 20  0  0  0  0  0  0  0  0999 V2000
   16.3581    2.3401   14.0393 C   0  0  0  0  0  0  0  0  0  0  0  0
   16.2316    2.7700   15.4899 C   0  0  2  0  0  0  0  0  0  0  0  0
   16.9011    4.1605   15.6511 C   0  0  1  0  0  0  0  0  0  0  0  0
   16.3696    4.8857   16.8861 C   0  0  0  0  0  0  0  0  0  0  0  0
   18.3759    4.1488   15.6779 N   0  0  0  0  0  0  0  0  0  0  0  0
   18.9391    2.8509   16.0956 C   0  0  0  0  0  0  0  0  0  0  0  0
   18.0467    2.0311   17.0431 C   0  0  0  0  0  0  0  0  0  0  0  0
   16.7354    1.7706   16.4512 N   0  0  0  0  0  0  0  0  0  0  0  0
   16.1410    0.5197   16.5507 C   0  0  0  0  0  0  0  0  0  0  0  0
   15.5476   -0.0571   15.6497 O   0  0  0  0  0  0  0  0  0  0  0  0
   16.2250   -0.2051   17.8259 C   0  0  0  0  0  0  0  0  0  0  0  0
   15.3257    0.1687   18.8297 C   0  0  0  0  0  0  0  0  0  0  0  0
   15.2958   -0.5688   20.0006 C   0  0  0  0  0  0  0  0  0  0  0  0
   14.4644   -0.2071   20.9876 F   0  0  0  0  0  0  0  0  0  0  0  0
   16.1375   -1.6625   20.1643 C   0  0  0  0  0  0  0  0  0  0  0  0
   16.1275   -2.3494   21.3127 F   0  0  0  0  0  0  0  0  0  0  0  0
   17.0210   -2.0438   19.1591 C   0  0  0  0  0  0  0  0  0  0  0  0
   17.0471   -1.3443   17.9512 C   0  0  0  0  0  0  0  0  0  0  0  0
   18.0461   -1.6549   17.0070 N   0  0  0  0  0  0  0  0  0  0  0  0
  2  1  1  6
  2  3  1  0
  3  4  1  1
  3  5  1  0
  5  6  1  0
  6  7  1  0
  7  8  1  0
  8  9  1  0
  9 10  2  0
  9 11  1  0
 11 12  2  0
 12 13  1  0
 13 14  1  0
 13 15  2  0
 15 16  1  0
 15 17  1  0
 17 18  2  0
 18 19  1  0
  8  2  1  0
 18 11  1  0
M  END
>  <HIPPO ID>  (239) 
80911

>  <ref_url>  (239) 
None

>  <ref_pdb>  (239) 
c0300a

>  <inchikey>  (239) 
XYWUIZPDIWGKRQ-HTQZYQBOSA-N

>  <original SMILES>  (239) 
C[C@@H]1[C@@H](C)NCCN1C(=O)c1cc(F)c(F)cc1N

>  <generation_date>  (239) 
None

>  <tags>  (239) 
[]

>  <ref_mols>  (239) 
c0398a,c0585a

>  <alias>  (239) 
None

>  <original ID>  (239) 
XYWUIZPDIWGKRQ-HTQZYQBOSA-N

>  <exports>  (239) 
['/opt/xchem-fragalysis-2/maxwin/CHIKV_HIPPO/hippo_prod/CHIKV_prod11c_recipes/Recipe_1GJWBFH_poses.sdf', '/opt/xchem-fragalysis-2/maxwin/CHIKV_HIPPO/hippo_prod/CHIKV_prod11c_recipes/Recipe_1GJXK8G_poses.sdf', '/opt/xchem-fragalysis-2/maxwin/CHIKV_HIPPO/hippo_prod/CHIKV_prod11c_recipes/Recipe_1GJXW46_poses.sdf']

>  <method>  (239) 
None

>  <submitter_email>  (239) 
None

>  <submitter_name>  (239) 
None

$$$$
XYWUIZPDIWGKRQ-YUMQZZPRSA-N
     RDKit          3D

 19 20  0  0  0  0  0  0  0  0999 V2000
   17.4686    4.4035   13.6654 C   0  0  0  0  0  0  0  0  0  0  0  0
   17.4049    3.7616   15.0492 C   0  0  2  0  0  0  0  0  0  0  0  0
   18.7555    3.7854   15.6314 N   0  0  0  0  0  0  0  0  0  0  0  0
   18.6956    3.2426   16.9922 C   0  0  0  0  0  0  0  0  0  0  0  0
   18.0987    1.8315   17.0647 C   0  0  0  0  0  0  0  0  0  0  0  0
   16.8261    1.6819   16.3483 N   0  0  0  0  0  0  0  0  0  0  0  0
   16.1595    0.4525   16.5128 C   0  0  0  0  0  0  0  0  0  0  0  0
   15.5897   -0.1847   15.6361 O   0  0  0  0  0  0  0  0  0  0  0  0
   16.1847   -0.2258   17.8159 C   0  0  0  0  0  0  0  0  0  0  0  0
   15.2565    0.1671   18.7829 C   0  0  0  0  0  0  0  0  0  0  0  0
   15.2120   -0.5362   19.9756 C   0  0  0  0  0  0  0  0  0  0  0  0
   14.3580   -0.1564   20.9363 F   0  0  0  0  0  0  0  0  0  0  0  0
   16.0636   -1.6143   20.1926 C   0  0  0  0  0  0  0  0  0  0  0  0
   16.0366   -2.2658   21.3613 F   0  0  0  0  0  0  0  0  0  0  0  0
   16.9735   -2.0164   19.2216 C   0  0  0  0  0  0  0  0  0  0  0  0
   17.0182   -1.3529   17.9955 C   0  0  0  0  0  0  0  0  0  0  0  0
   18.0417   -1.6816   17.0838 N   0  0  0  0  0  0  0  0  0  0  0  0
   16.8317    2.3141   14.9975 C   0  0  1  0  0  0  0  0  0  0  0  0
   15.4567    2.4085   14.3489 C   0  0  0  0  0  0  0  0  0  0  0  0
  2  1  1  6
  2  3  1  0
  3  4  1  0
  4  5  1  0
  5  6  1  0
  6  7  1  0
  7  8  2  0
  7  9  1  0
  9 10  2  0
 10 11  1  0
 11 12  1  0
 11 13  2  0
 13 14  1  0
 13 15  1  0
 15 16  2  0
 16 17  1  0
  6 18  1  0
 18 19  1  1
 18  2  1  0
 16  9  1  0
M  END
>  <HIPPO ID>  (240) 
80912

>  <ref_url>  (240) 
None

>  <ref_pdb>  (240) 
c0300a

>  <inchikey>  (240) 
XYWUIZPDIWGKRQ-YUMQZZPRSA-N

>  <original SMILES>  (240) 
C[C@@H]1NCCN(C(=O)c2cc(F)c(F)cc2N)[C@H]1C

>  <generation_date>  (240) 
None

>  <tags>  (240) 
[]

>  <ref_mols>  (240) 
c0398a,c0585a

>  <alias>  (240) 
None

>  <original ID>  (240) 
XYWUIZPDIWGKRQ-YUMQZZPRSA-N

>  <exports>  (240) 
['/opt/xchem-fragalysis-2/maxwin/CHIKV_HIPPO/hippo_prod/CHIKV_prod11c_recipes/Recipe_1GJWBFH_poses.sdf', '/opt/xchem-fragalysis-2/maxwin/CHIKV_HIPPO/hippo_prod/CHIKV_prod11c_recipes/Recipe_1GJXK8G_poses.sdf', '/opt/xchem-fragalysis-2/maxwin/CHIKV_HIPPO/hippo_prod/CHIKV_prod11c_recipes/Recipe_1GJXW46_poses.sdf']

>  <method>  (240) 
None

>  <submitter_email>  (240) 
None

>  <submitter_name>  (240) 
None

$$$$
XYWUIZPDIWGKRQ-HTQZYQBOSA-N
     RDKit          3D

 19 20  0  0  0  0  0  0  0  0999 V2000
   16.4354    4.9002   16.8523 C   0  0  0  0  0  0  0  0  0  0  0  0
   16.8993    4.1468   15.6073 C   0  0  1  0  0  0  0  0  0  0  0  0
   18.3746    4.1035   15.5605 N   0  0  0  0  0  0  0  0  0  0  0  0
   18.9278    2.8082   16.0064 C   0  0  0  0  0  0  0  0  0  0  0  0
   18.0498    2.0227   16.9958 C   0  0  0  0  0  0  0  0  0  0  0  0
   16.7191    1.7702   16.4456 N   0  0  0  0  0  0  0  0  0  0  0  0
   16.1336    0.5151   16.5524 C   0  0  0  0  0  0  0  0  0  0  0  0
   15.5422   -0.0729   15.6573 O   0  0  0  0  0  0  0  0  0  0  0  0
   16.2250   -0.2024   17.8313 C   0  0  0  0  0  0  0  0  0  0  0  0
   15.3279    0.1734   18.8362 C   0  0  0  0  0  0  0  0  0  0  0  0
   15.2984   -0.5635   20.0076 C   0  0  0  0  0  0  0  0  0  0  0  0
   14.4674   -0.2015   20.9948 F   0  0  0  0  0  0  0  0  0  0  0  0
   16.1391   -1.6581   20.1711 C   0  0  0  0  0  0  0  0  0  0  0  0
   16.1286   -2.3451   21.3194 F   0  0  0  0  0  0  0  0  0  0  0  0
   17.0212   -2.0408   19.1654 C   0  0  0  0  0  0  0  0  0  0  0  0
   17.0457   -1.3428   17.9566 C   0  0  0  0  0  0  0  0  0  0  0  0
   18.0414   -1.6570   17.0100 N   0  0  0  0  0  0  0  0  0  0  0  0
   16.1997    2.7669   15.4889 C   0  0  2  0  0  0  0  0  0  0  0  0
   16.2694    2.3223   14.0387 C   0  0  0  0  0  0  0  0  0  0  0  0
  2  1  1  1
  2  3  1  0
  3  4  1  0
  4  5  1  0
  5  6  1  0
  6  7  1  0
  7  8  2  0
  7  9  1  0
  9 10  2  0
 10 11  1  0
 11 12  1  0
 11 13  2  0
 13 14  1  0
 13 15  1  0
 15 16  2  0
 16 17  1  0
  6 18  1  0
 18 19  1  6
 18  2  1  0
 16  9  1  0
M  END
>  <HIPPO ID>  (241) 
80913

>  <ref_url>  (241) 
None

>  <ref_pdb>  (241) 
c0300a

>  <inchikey>  (241) 
XYWUIZPDIWGKRQ-HTQZYQBOSA-N

>  <original SMILES>  (241) 
C[C@@H]1[C@@H](C)NCCN1C(=O)c1cc(F)c(F)cc1N

>  <generation_date>  (241) 
None

>  <tags>  (241) 
[]

>  <ref_mols>  (241) 
c0398a,c0585a

>  <alias>  (241) 
None

>  <original ID>  (241) 
XYWUIZPDIWGKRQ-HTQZYQBOSA-N

>  <exports>  (241) 
['/opt/xchem-fragalysis-2/maxwin/CHIKV_HIPPO/hippo_prod/CHIKV_prod11c_recipes/Recipe_1GJWBFH_poses.sdf', '/opt/xchem-fragalysis-2/maxwin/CHIKV_HIPPO/hippo_prod/CHIKV_prod11c_recipes/Recipe_1GJXK8G_poses.sdf', '/opt/xchem-fragalysis-2/maxwin/CHIKV_HIPPO/hippo_prod/CHIKV_prod11c_recipes/Recipe_1GJXW46_poses.sdf']

>  <method>  (241) 
None

>  <submitter_email>  (241) 
None

>  <submitter_name>  (241) 
None

$$$$
YCQMJAAJPFPKQZ-MRVPVSSYSA-N
     RDKit          3D

 19 20  0  0  0  0  0  0  0  0999 V2000
   16.6447   -2.4756   21.5683 C   0  0  0  0  0  0  0  0  0  0  0  0
   16.4076   -1.8062   20.2508 C   0  0  0  0  0  0  0  0  0  0  0  0
   17.1055   -2.2407   19.1166 C   0  0  0  0  0  0  0  0  0  0  0  0
   16.9675   -1.5590   17.9123 C   0  0  0  0  0  0  0  0  0  0  0  0
   16.1512   -0.4265   17.8554 C   0  0  0  0  0  0  0  0  0  0  0  0
   16.0170    0.2777   16.5790 C   0  0  0  0  0  0  0  0  0  0  0  0
   15.4289   -0.2942   15.6765 O   0  0  0  0  0  0  0  0  0  0  0  0
   16.6924    1.4973   16.4691 N   0  0  0  0  0  0  0  0  0  0  0  0
   18.1239    1.3435   16.2527 C   0  0  0  0  0  0  0  0  0  0  0  0
   18.8501    2.6114   15.8309 C   0  0  0  0  0  0  0  0  0  0  0  0
   20.0162    2.5950   15.4509 O   0  0  0  0  0  0  0  0  0  0  0  0
   18.1479    3.7829   15.9144 N   0  0  0  0  0  0  0  0  0  0  0  0
   16.7868    3.8601   15.7752 C   0  0  0  0  0  0  0  0  0  0  0  0
   16.2284    4.9333   15.5540 O   0  0  0  0  0  0  0  0  0  0  0  0
   16.0539    2.5342   15.6568 C   0  0  1  0  0  0  0  0  0  0  0  0
   15.9551    2.2617   14.1665 C   0  0  0  0  0  0  0  0  0  0  0  0
   15.4195    0.0008   18.9586 C   0  0  0  0  0  0  0  0  0  0  0  0
   15.5560   -0.6984   20.1484 C   0  0  0  0  0  0  0  0  0  0  0  0
   14.8630   -0.2870   21.2206 F   0  0  0  0  0  0  0  0  0  0  0  0
  1  2  1  0
  2  3  2  0
  3  4  1  0
  4  5  2  0
  5  6  1  0
  6  7  2  0
  6  8  1  0
  8  9  1  0
  9 10  1  0
 10 11  2  0
 10 12  1  0
 12 13  1  0
 13 14  2  0
 13 15  1  0
 15 16  1  6
  5 17  1  0
 17 18  2  0
 18 19  1  0
 18  2  1  0
 15  8  1  0
M  END
>  <HIPPO ID>  (242) 
81422

>  <ref_url>  (242) 
None

>  <ref_pdb>  (242) 
c0300a

>  <inchikey>  (242) 
YCQMJAAJPFPKQZ-MRVPVSSYSA-N

>  <original SMILES>  (242) 
Cc1ccc(C(=O)N2CC(=O)NC(=O)[C@H]2C)cc1F

>  <generation_date>  (242) 
None

>  <tags>  (242) 
[]

>  <ref_mols>  (242) 
c0398a,c0585a

>  <alias>  (242) 
None

>  <original ID>  (242) 
YCQMJAAJPFPKQZ-MRVPVSSYSA-N

>  <exports>  (242) 
['/opt/xchem-fragalysis-2/maxwin/CHIKV_HIPPO/hippo_prod/CHIKV_prod11_recipes/Recipe_1G8PPKY_poses.sdf', '/opt/xchem-fragalysis-2/maxwin/CHIKV_HIPPO/hippo_prod/CHIKV_prod11c_recipes/Recipe_1GJXW46_poses.sdf']

>  <method>  (242) 
None

>  <submitter_email>  (242) 
None

>  <submitter_name>  (242) 
None

$$$$
YCQMJAAJPFPKQZ-MRVPVSSYSA-N
     RDKit          3D

 19 20  0  0  0  0  0  0  0  0999 V2000
   16.6384   -2.4840   21.5674 C   0  0  0  0  0  0  0  0  0  0  0  0
   16.4017   -1.8131   20.2507 C   0  0  0  0  0  0  0  0  0  0  0  0
   17.0971   -2.2494   19.1157 C   0  0  0  0  0  0  0  0  0  0  0  0
   16.9580   -1.5680   17.9117 C   0  0  0  0  0  0  0  0  0  0  0  0
   16.1433   -0.4342   17.8557 C   0  0  0  0  0  0  0  0  0  0  0  0
   16.0072    0.2677   16.5785 C   0  0  0  0  0  0  0  0  0  0  0  0
   15.4201   -0.3078   15.6775 O   0  0  0  0  0  0  0  0  0  0  0  0
   16.6855    1.4853   16.4647 N   0  0  0  0  0  0  0  0  0  0  0  0
   18.1159    1.3242   16.2464 C   0  0  0  0  0  0  0  0  0  0  0  0
   18.8420    2.5812   15.7951 C   0  0  0  0  0  0  0  0  0  0  0  0
   19.9976    2.5512   15.3860 O   0  0  0  0  0  0  0  0  0  0  0  0
   18.1528    3.7591   15.8940 N   0  0  0  0  0  0  0  0  0  0  0  0
   16.7927    3.8439   15.7511 C   0  0  0  0  0  0  0  0  0  0  0  0
   16.2431    4.9171   15.5092 O   0  0  0  0  0  0  0  0  0  0  0  0
   16.0497    2.5227   15.6503 C   0  0  1  0  0  0  0  0  0  0  0  0
   15.9391    2.2440   14.1624 C   0  0  0  0  0  0  0  0  0  0  0  0
   15.4152   -0.0042   18.9600 C   0  0  0  0  0  0  0  0  0  0  0  0
   15.5528   -0.7031   20.1498 C   0  0  0  0  0  0  0  0  0  0  0  0
   14.8631   -0.2894   21.2233 F   0  0  0  0  0  0  0  0  0  0  0  0
  1  2  1  0
  2  3  2  0
  3  4  1  0
  4  5  2  0
  5  6  1  0
  6  7  2  0
  6  8  1  0
  8  9  1  0
  9 10  1  0
 10 11  2  0
 10 12  1  0
 12 13  1  0
 13 14  2  0
 13 15  1  0
 15 16  1  6
  5 17  1  0
 17 18  2  0
 18 19  1  0
 18  2  1  0
 15  8  1  0
M  END
>  <HIPPO ID>  (243) 
81423

>  <ref_url>  (243) 
None

>  <ref_pdb>  (243) 
c0300a

>  <inchikey>  (243) 
YCQMJAAJPFPKQZ-MRVPVSSYSA-N

>  <original SMILES>  (243) 
Cc1ccc(C(=O)N2CC(=O)NC(=O)[C@H]2C)cc1F

>  <generation_date>  (243) 
None

>  <tags>  (243) 
[]

>  <ref_mols>  (243) 
c0398a,c0585a

>  <alias>  (243) 
None

>  <original ID>  (243) 
YCQMJAAJPFPKQZ-MRVPVSSYSA-N

>  <exports>  (243) 
['/opt/xchem-fragalysis-2/maxwin/CHIKV_HIPPO/hippo_prod/CHIKV_prod11_recipes/Recipe_1G8PPKY_poses.sdf', '/opt/xchem-fragalysis-2/maxwin/CHIKV_HIPPO/hippo_prod/CHIKV_prod11c_recipes/Recipe_1GJXW46_poses.sdf']

>  <method>  (243) 
None

>  <submitter_email>  (243) 
None

>  <submitter_name>  (243) 
None

$$$$
QBGAKTUPPLJLOM-UHFFFAOYSA-N
     RDKit          3D

 21 22  0  0  0  0  0  0  0  0999 V2000
   22.4370   11.8845    9.6525 C   0  0  0  0  0  0  0  0  0  0  0  0
   21.7421   12.0595   10.9952 C   0  0  0  0  0  0  0  0  0  0  0  0
   22.3677   11.0917   11.9868 C   0  0  0  0  0  0  0  0  0  0  0  0
   22.0024   13.4726   11.5346 C   0  0  0  0  0  0  0  0  0  0  0  0
   20.3443   11.6363   10.9351 O   0  0  0  0  0  0  0  0  0  0  0  0
   19.3717   12.5559   10.8853 C   0  0  0  0  0  0  0  0  0  0  0  0
   19.4847   13.7300   10.5863 O   0  0  0  0  0  0  0  0  0  0  0  0
   18.0418   12.0012   11.4080 C   0  0  0  0  0  0  0  0  0  0  0  0
   17.6708   12.4359   12.4943 O   0  0  0  0  0  0  0  0  0  0  0  0
   17.3789   11.0904   10.6015 N   0  0  0  0  0  0  0  0  0  0  0  0
   16.2610   10.2860   10.9619 C   0  0  0  0  0  0  0  0  0  0  0  0
   15.8860    9.2941   10.0496 C   0  0  0  0  0  0  0  0  0  0  0  0
   15.0157    8.2780   10.4406 C   0  0  0  0  0  0  0  0  0  0  0  0
   14.5854    8.1865   11.7503 C   0  0  0  0  0  0  0  0  0  0  0  0
   14.8402    9.2419   12.6152 C   0  0  0  0  0  0  0  0  0  0  0  0
   15.5838   10.3495   12.1960 C   0  0  0  0  0  0  0  0  0  0  0  0
   15.3233   11.5694   12.8405 N   0  0  0  0  0  0  0  0  0  0  0  0
   13.8119    7.1616   12.2302 O   0  0  0  0  0  0  0  0  0  0  0  0
   13.2691    6.3134   11.2142 C   0  0  0  0  0  0  0  0  0  0  0  0
   14.2026    6.1515   10.0436 C   0  0  0  0  0  0  0  0  0  0  0  0
   14.5825    7.4109    9.4928 O   0  0  0  0  0  0  0  0  0  0  0  0
  1  2  1  0
  2  3  1  0
  2  4  1  0
  2  5  1  0
  5  6  1  0
  6  7  2  0
  6  8  1  0
  8  9  2  0
  8 10  1  0
 10 11  1  0
 11 12  2  0
 12 13  1  0
 13 14  2  0
 14 15  1  0
 15 16  2  0
 16 17  1  0
 14 18  1  0
 18 19  1  0
 19 20  1  0
 20 21  1  0
 16 11  1  0
 21 13  1  0
M  END
>  <HIPPO ID>  (244) 
85814

>  <ref_url>  (244) 
None

>  <ref_pdb>  (244) 
c0270a

>  <inchikey>  (244) 
QBGAKTUPPLJLOM-UHFFFAOYSA-N

>  <original SMILES>  (244) 
CC(C)(C)OC(=O)C(=O)Nc1cc2c(cc1N)OCCO2

>  <generation_date>  (244) 
None

>  <tags>  (244) 
[]

>  <ref_mols>  (244) 
c0935a,c1116a

>  <alias>  (244) 
None

>  <original ID>  (244) 
QBGAKTUPPLJLOM-UHFFFAOYSA-N

>  <exports>  (244) 
['/opt/xchem-fragalysis-2/maxwin/CHIKV_HIPPO/hippo_prod/CHIKV_prod11c_recipes/Recipe_1GJWBFH_poses.sdf', '/opt/xchem-fragalysis-2/maxwin/CHIKV_HIPPO/hippo_prod/CHIKV_prod11c_recipes/Recipe_1GJXK8G_poses.sdf', '/opt/xchem-fragalysis-2/maxwin/CHIKV_HIPPO/hippo_prod/CHIKV_prod11c_recipes/Recipe_1GJXW46_poses.sdf']

>  <method>  (244) 
None

>  <submitter_email>  (244) 
None

>  <submitter_name>  (244) 
None

$$$$
VZEQNMOPRLHGLE-UHFFFAOYSA-N
     RDKit          3D

 22 23  0  0  0  0  0  0  0  0999 V2000
   13.9703   12.8911   12.5028 C   0  0  0  0  0  0  0  0  0  0  0  0
   14.5991   11.7341   11.9787 O   0  0  0  0  0  0  0  0  0  0  0  0
   14.7975   11.8157   10.6025 C   0  0  0  0  0  0  0  0  0  0  0  0
   15.9063   11.0709    9.7897 C   0  0  0  0  0  0  0  0  0  0  0  0
   15.4964   10.4100    8.8191 O   0  0  0  0  0  0  0  0  0  0  0  0
   17.2613   11.0526    9.9917 N   0  0  0  0  0  0  0  0  0  0  0  0
   18.1821   11.8441   10.6920 O   0  0  0  0  0  0  0  0  0  0  0  0
   17.7257   12.3497   11.9257 C   0  0  0  0  0  0  0  0  0  0  0  0
   17.0246   11.3532   12.8509 C   0  0  0  0  0  0  0  0  0  0  0  0
   16.7180   11.6764   13.9896 O   0  0  0  0  0  0  0  0  0  0  0  0
   16.7940   10.1548   12.2164 N   0  0  0  0  0  0  0  0  0  0  0  0
   15.8358    9.1406   12.3816 C   0  0  0  0  0  0  0  0  0  0  0  0
   15.0854    9.0230   13.5361 C   0  0  0  0  0  0  0  0  0  0  0  0
   14.1061    8.0350   13.5966 C   0  0  0  0  0  0  0  0  0  0  0  0
   13.8762    7.1734   12.5117 C   0  0  0  0  0  0  0  0  0  0  0  0
   14.6001    7.3024   11.3497 C   0  0  0  0  0  0  0  0  0  0  0  0
   15.6022    8.2571   11.2857 C   0  0  0  0  0  0  0  0  0  0  0  0
   16.2419    8.3451   10.0528 N   0  0  0  0  0  0  0  0  0  0  0  0
   12.8820    6.2339   12.4867 O   0  0  0  0  0  0  0  0  0  0  0  0
   12.4847    5.9082   13.8140 C   0  0  0  0  0  0  0  0  0  0  0  0
   12.1849    7.1689   14.6028 C   0  0  0  0  0  0  0  0  0  0  0  0
   13.3296    8.0214   14.7285 O   0  0  0  0  0  0  0  0  0  0  0  0
  1  2  1  0
  2  3  1  0
  3  4  1  0
  4  5  2  0
  4  6  1  0
  6  7  1  0
  7  8  1  0
  8  9  1  0
  9 10  2  0
  9 11  1  0
 11 12  1  0
 12 13  2  0
 13 14  1  0
 14 15  2  0
 15 16  1  0
 16 17  2  0
 17 18  1  0
 15 19  1  0
 19 20  1  0
 20 21  1  0
 21 22  1  0
 17 12  1  0
 22 14  1  0
M  END
>  <HIPPO ID>  (245) 
86225

>  <ref_url>  (245) 
None

>  <ref_pdb>  (245) 
c0270a

>  <inchikey>  (245) 
VZEQNMOPRLHGLE-UHFFFAOYSA-N

>  <original SMILES>  (245) 
COCC(=O)NOCC(=O)Nc1cc2c(cc1N)OCCO2

>  <generation_date>  (245) 
None

>  <tags>  (245) 
[]

>  <ref_mols>  (245) 
c0935a,c1116a

>  <alias>  (245) 
None

>  <original ID>  (245) 
VZEQNMOPRLHGLE-UHFFFAOYSA-N

>  <exports>  (245) 
['/opt/xchem-fragalysis-2/maxwin/CHIKV_HIPPO/hippo_prod/CHIKV_prod11c_recipes/Recipe_1GJWBFH_poses.sdf', '/opt/xchem-fragalysis-2/maxwin/CHIKV_HIPPO/hippo_prod/CHIKV_prod11c_recipes/Recipe_1GJXK8G_poses.sdf', '/opt/xchem-fragalysis-2/maxwin/CHIKV_HIPPO/hippo_prod/CHIKV_prod11c_recipes/Recipe_1GJXW46_poses.sdf']

>  <method>  (245) 
None

>  <submitter_email>  (245) 
None

>  <submitter_name>  (245) 
None

$$$$
XJQWQCNJWGSCQA-NSHDSACASA-N
     RDKit          3D

 23 24  0  0  0  0  0  0  0  0999 V2000
   13.1450    5.8107   10.5355 C   0  0  0  0  0  0  0  0  0  0  0  0
   13.3282    6.8005   11.5361 O   0  0  0  0  0  0  0  0  0  0  0  0
   14.2720    7.7521   11.2661 C   0  0  0  0  0  0  0  0  0  0  0  0
   14.6283    8.1263    9.9744 C   0  0  0  0  0  0  0  0  0  0  0  0
   15.5806    9.1109    9.7583 C   0  0  0  0  0  0  0  0  0  0  0  0
   16.0034    9.3754    8.4643 N   0  0  0  0  0  0  0  0  0  0  0  0
   16.2633    9.6552   10.8337 C   0  0  0  0  0  0  0  0  0  0  0  0
   17.4297   10.3770   10.5048 N   0  0  0  0  0  0  0  0  0  0  0  0
   18.1659   11.1155   11.3802 C   0  0  0  0  0  0  0  0  0  0  0  0
   17.7835   11.2927   12.5328 O   0  0  0  0  0  0  0  0  0  0  0  0
   19.3677   11.8428   10.7840 C   0  0  2  0  0  0  0  0  0  0  0  0
   20.7404   11.7187   11.4044 C   0  0  0  0  0  0  0  0  0  0  0  0
   19.0177   13.2097   10.6709 O   0  0  0  0  0  0  0  0  0  0  0  0
   18.7486   13.8493   11.9152 C   0  0  0  0  0  0  0  0  0  0  0  0
   17.2802   13.9276   12.3912 C   0  0  0  0  0  0  0  0  0  0  0  0
   17.0478   14.6931   13.5314 C   0  0  0  0  0  0  0  0  0  0  0  0
   15.8071   14.6653   14.1737 C   0  0  0  0  0  0  0  0  0  0  0  0
   14.7643   13.8755   13.6958 C   0  0  0  0  0  0  0  0  0  0  0  0
   14.9293   13.1633   12.5287 C   0  0  0  0  0  0  0  0  0  0  0  0
   16.1692   13.2073   11.8942 C   0  0  0  0  0  0  0  0  0  0  0  0
   15.8099    9.4049   12.1266 C   0  0  0  0  0  0  0  0  0  0  0  0
   14.8253    8.4495   12.3429 C   0  0  0  0  0  0  0  0  0  0  0  0
   14.2918    8.1455   14.1423 Br  0  0  0  0  0  0  0  0  0  0  0  0
  1  2  1  0
  2  3  1  0
  3  4  2  0
  4  5  1  0
  5  6  1  0
  5  7  2  0
  7  8  1  0
  8  9  1  0
  9 10  2  0
  9 11  1  0
 11 12  1  1
 11 13  1  0
 13 14  1  0
 14 15  1  0
 15 16  2  0
 16 17  1  0
 17 18  2  0
 18 19  1  0
 19 20  2  0
  7 21  1  0
 21 22  2  0
 22 23  1  0
 22  3  1  0
 20 15  1  0
M  END
>  <HIPPO ID>  (246) 
86633

>  <ref_url>  (246) 
None

>  <ref_pdb>  (246) 
c0270a

>  <inchikey>  (246) 
XJQWQCNJWGSCQA-NSHDSACASA-N

>  <original SMILES>  (246) 
COc1cc(N)c(NC(=O)[C@H](C)OCc2ccccc2)cc1Br

>  <generation_date>  (246) 
None

>  <tags>  (246) 
[]

>  <ref_mols>  (246) 
c0935a,c1116a

>  <alias>  (246) 
None

>  <original ID>  (246) 
XJQWQCNJWGSCQA-NSHDSACASA-N

>  <exports>  (246) 
['/opt/xchem-fragalysis-2/maxwin/CHIKV_HIPPO/hippo_prod/CHIKV_prod11c_recipes/Recipe_1GJWBFH_poses.sdf', '/opt/xchem-fragalysis-2/maxwin/CHIKV_HIPPO/hippo_prod/CHIKV_prod11c_recipes/Recipe_1GJXK8G_poses.sdf', '/opt/xchem-fragalysis-2/maxwin/CHIKV_HIPPO/hippo_prod/CHIKV_prod11c_recipes/Recipe_1GJXW46_poses.sdf']

>  <method>  (246) 
None

>  <submitter_email>  (246) 
None

>  <submitter_name>  (246) 
None

$$$$
XJQWQCNJWGSCQA-LLVKDONJSA-N
     RDKit          3D

 23 24  0  0  0  0  0  0  0  0999 V2000
   13.2662    5.6027   10.9277 C   0  0  0  0  0  0  0  0  0  0  0  0
   13.2515    6.7790   11.7218 O   0  0  0  0  0  0  0  0  0  0  0  0
   14.2295    7.6831   11.4187 C   0  0  0  0  0  0  0  0  0  0  0  0
   14.5342    8.0536   10.1159 C   0  0  0  0  0  0  0  0  0  0  0  0
   15.4912    9.0426    9.8622 C   0  0  0  0  0  0  0  0  0  0  0  0
   15.7001    9.4400    8.5560 N   0  0  0  0  0  0  0  0  0  0  0  0
   16.2696    9.5487   10.8862 C   0  0  0  0  0  0  0  0  0  0  0  0
   17.4670   10.2617   10.5360 N   0  0  0  0  0  0  0  0  0  0  0  0
   18.1664   10.9669   11.4594 C   0  0  0  0  0  0  0  0  0  0  0  0
   17.6198   11.2250   12.5419 O   0  0  0  0  0  0  0  0  0  0  0  0
   19.6453   11.4050   11.3040 C   0  0  1  0  0  0  0  0  0  0  0  0
   20.5215   11.2638   10.1277 C   0  0  0  0  0  0  0  0  0  0  0  0
   19.8743   12.6435   11.9540 O   0  0  0  0  0  0  0  0  0  0  0  0
   19.0294   13.6685   11.4736 C   0  0  0  0  0  0  0  0  0  0  0  0
   17.7044   13.9064   12.2257 C   0  0  0  0  0  0  0  0  0  0  0  0
   17.7008   14.7578   13.3222 C   0  0  0  0  0  0  0  0  0  0  0  0
   16.5179   14.9984   14.0337 C   0  0  0  0  0  0  0  0  0  0  0  0
   15.3131   14.3861   13.6832 C   0  0  0  0  0  0  0  0  0  0  0  0
   15.2732   13.5383   12.5988 C   0  0  0  0  0  0  0  0  0  0  0  0
   16.4504   13.3279   11.8828 C   0  0  0  0  0  0  0  0  0  0  0  0
   15.8434    9.2893   12.1961 C   0  0  0  0  0  0  0  0  0  0  0  0
   14.8241    8.3824   12.4608 C   0  0  0  0  0  0  0  0  0  0  0  0
   14.2824    8.1659   14.2686 Br  0  0  0  0  0  0  0  0  0  0  0  0
  1  2  1  0
  2  3  1  0
  3  4  2  0
  4  5  1  0
  5  6  1  0
  5  7  2  0
  7  8  1  0
  8  9  1  0
  9 10  2  0
  9 11  1  0
 11 12  1  6
 11 13  1  0
 13 14  1  0
 14 15  1  0
 15 16  2  0
 16 17  1  0
 17 18  2  0
 18 19  1  0
 19 20  2  0
  7 21  1  0
 21 22  2  0
 22 23  1  0
 22  3  1  0
 20 15  1  0
M  END
>  <HIPPO ID>  (247) 
86634

>  <ref_url>  (247) 
None

>  <ref_pdb>  (247) 
c0270a

>  <inchikey>  (247) 
XJQWQCNJWGSCQA-LLVKDONJSA-N

>  <original SMILES>  (247) 
COc1cc(N)c(NC(=O)[C@@H](C)OCc2ccccc2)cc1Br

>  <generation_date>  (247) 
None

>  <tags>  (247) 
[]

>  <ref_mols>  (247) 
c0935a,c1116a

>  <alias>  (247) 
None

>  <original ID>  (247) 
XJQWQCNJWGSCQA-LLVKDONJSA-N

>  <exports>  (247) 
['/opt/xchem-fragalysis-2/maxwin/CHIKV_HIPPO/hippo_prod/CHIKV_prod11c_recipes/Recipe_1GJWBFH_poses.sdf', '/opt/xchem-fragalysis-2/maxwin/CHIKV_HIPPO/hippo_prod/CHIKV_prod11c_recipes/Recipe_1GJXK8G_poses.sdf', '/opt/xchem-fragalysis-2/maxwin/CHIKV_HIPPO/hippo_prod/CHIKV_prod11c_recipes/Recipe_1GJXW46_poses.sdf']

>  <method>  (247) 
None

>  <submitter_email>  (247) 
None

>  <submitter_name>  (247) 
None

$$$$
ODFOLLXLPAODBO-GFCCVEGCSA-N
     RDKit          3D

 24 25  0  0  0  0  0  0  0  0999 V2000
   13.3061    6.3201   10.0952 C   0  0  0  0  0  0  0  0  0  0  0  0
   13.6744    6.9114   11.3247 O   0  0  0  0  0  0  0  0  0  0  0  0
   14.5077    7.9883   11.2344 C   0  0  0  0  0  0  0  0  0  0  0  0
   15.1981    8.2717   12.4106 C   0  0  0  0  0  0  0  0  0  0  0  0
   16.0171    9.3924   12.4971 C   0  0  0  0  0  0  0  0  0  0  0  0
   16.1538   10.2300   11.4019 C   0  0  0  0  0  0  0  0  0  0  0  0
   17.0636   11.3047   11.3197 N   0  0  0  0  0  0  0  0  0  0  0  0
   17.4758   12.0722   12.3826 C   0  0  0  0  0  0  0  0  0  0  0  0
   17.1911   11.8359   13.5536 O   0  0  0  0  0  0  0  0  0  0  0  0
   18.1891   13.3708   11.9928 C   0  0  1  0  0  0  0  0  0  0  0  0
   18.7615   14.1078   13.1870 C   0  0  0  0  0  0  0  0  0  0  0  0
   19.0267   13.2667   10.8651 O   0  0  0  0  0  0  0  0  0  0  0  0
   20.3639   13.7397   10.9853 C   0  0  0  0  0  0  0  0  0  0  0  0
   21.3157   12.6007   11.0859 C   0  0  0  0  0  0  0  0  0  0  0  0
   20.8483   11.3567   10.7115 C   0  0  0  0  0  0  0  0  0  0  0  0
   21.6750   10.6174    9.9370 C   0  0  0  0  0  0  0  0  0  0  0  0
   22.9761   11.0492    9.6908 C   0  0  0  0  0  0  0  0  0  0  0  0
   23.5340   12.0984   10.3900 C   0  0  0  0  0  0  0  0  0  0  0  0
   22.6823   12.9005   11.1053 C   0  0  0  0  0  0  0  0  0  0  0  0
   15.2463   10.0825   10.3445 C   0  0  0  0  0  0  0  0  0  0  0  0
   14.7392   11.2526    9.7378 N   0  0  0  0  0  0  0  0  0  0  0  0
   14.2378   11.9955   10.6283 N   0  0  0  0  0  4  0  0  0  0  0  0
   13.8248   12.6790   11.4406 N   0  0  0  0  0  2  0  0  0  0  0  0
   14.5425    8.8931   10.1778 C   0  0  0  0  0  0  0  0  0  0  0  0
  1  2  1  0
  2  3  1  0
  3  4  2  0
  4  5  1  0
  5  6  2  0
  6  7  1  0
  7  8  1  0
  8  9  2  0
  8 10  1  0
 10 11  1  1
 10 12  1  0
 12 13  1  0
 13 14  1  0
 14 15  2  0
 15 16  1  0
 16 17  2  0
 17 18  1  0
 18 19  2  0
  6 20  1  0
 20 21  1  0
 21 22  2  0
 22 23  2  0
 20 24  2  0
 24  3  1  0
 19 14  1  0
M  CHG  2  22   1  23  -1
M  END
>  <HIPPO ID>  (248) 
87260

>  <ref_url>  (248) 
None

>  <ref_pdb>  (248) 
c0270a

>  <inchikey>  (248) 
ODFOLLXLPAODBO-GFCCVEGCSA-N

>  <original SMILES>  (248) 
COc1ccc(NC(=O)[C@@H](C)OCc2ccccc2)c(N=[N+]=[N-])c1

>  <generation_date>  (248) 
None

>  <tags>  (248) 
[]

>  <ref_mols>  (248) 
c0935a,c1116a

>  <alias>  (248) 
None

>  <original ID>  (248) 
ODFOLLXLPAODBO-GFCCVEGCSA-N

>  <exports>  (248) 
['/opt/xchem-fragalysis-2/maxwin/CHIKV_HIPPO/hippo_prod/CHIKV_prod11c_recipes/Recipe_1GJWBFH_poses.sdf', '/opt/xchem-fragalysis-2/maxwin/CHIKV_HIPPO/hippo_prod/CHIKV_prod11c_recipes/Recipe_1GJXK8G_poses.sdf', '/opt/xchem-fragalysis-2/maxwin/CHIKV_HIPPO/hippo_prod/CHIKV_prod11c_recipes/Recipe_1GJXW46_poses.sdf']

>  <method>  (248) 
None

>  <submitter_email>  (248) 
None

>  <submitter_name>  (248) 
None

$$$$
KZFJISGZOSRQIS-UHFFFAOYSA-N
     RDKit          3D

 22 24  0  0  0  0  0  0  0  0999 V2000
   15.7274   10.0571   13.4010 C   0  0  0  0  0  0  0  0  0  0  0  0
   15.4514    9.4671   12.0512 C   0  0  0  0  0  0  0  0  0  0  0  0
   14.6833    8.2874   12.0287 C   0  0  0  0  0  0  0  0  0  0  0  0
   14.2478    7.7224   10.8334 C   0  0  0  0  0  0  0  0  0  0  0  0
   14.5552    8.3437    9.6385 C   0  0  0  0  0  0  0  0  0  0  0  0
   15.4131    9.4355    9.6319 C   0  0  0  0  0  0  0  0  0  0  0  0
   15.8872    9.9977   10.8262 C   0  0  0  0  0  0  0  0  0  0  0  0
   16.8877   10.9724   10.6474 N   0  0  0  0  0  0  0  0  0  0  0  0
   17.3746   11.8905   11.5458 C   0  0  0  0  0  0  0  0  0  0  0  0
   16.7379   12.4342   12.4385 O   0  0  0  0  0  0  0  0  0  0  0  0
   18.8104   12.2493   11.3966 C   0  0  0  0  0  0  0  0  0  0  0  0
   19.3396   13.2979   12.1900 C   0  0  0  0  0  0  0  0  0  0  0  0
   20.7103   13.5979   12.1852 C   0  0  0  0  0  0  0  0  0  0  0  0
   21.2621   14.9049   13.1478 Cl  0  0  0  0  0  0  0  0  0  0  0  0
   21.5232   12.8684   11.3432 C   0  0  0  0  0  0  0  0  0  0  0  0
   20.9760   11.8404   10.5756 C   0  0  0  0  0  0  0  0  0  0  0  0
   19.6534   11.4832   10.5951 C   0  0  0  0  0  0  0  0  0  0  0  0
   21.9504   11.3427    9.7368 N   0  0  0  0  0  0  0  0  0  0  0  0
   23.0976   12.1049    9.8749 C   0  0  0  0  0  0  0  0  0  0  0  0
   24.0663   12.0546    9.1463 O   0  0  0  0  0  0  0  0  0  0  0  0
   22.8708   12.9686   10.9576 N   0  0  0  0  0  0  0  0  0  0  0  0
   23.9254   13.6826   11.5964 C   0  0  0  0  0  0  0  0  0  0  0  0
  1  2  1  0
  2  3  2  0
  3  4  1  0
  4  5  2  0
  5  6  1  0
  6  7  2  0
  7  8  1  0
  8  9  1  0
  9 10  2  0
  9 11  1  0
 11 12  2  0
 12 13  1  0
 13 14  1  0
 13 15  2  0
 15 16  1  0
 16 17  2  0
 16 18  1  0
 18 19  1  0
 19 20  2  0
 19 21  1  0
 21 22  1  0
  7  2  1  0
 17 11  1  0
 21 15  1  0
M  END
>  <HIPPO ID>  (249) 
89117

>  <ref_url>  (249) 
None

>  <ref_pdb>  (249) 
c0270a

>  <inchikey>  (249) 
KZFJISGZOSRQIS-UHFFFAOYSA-N

>  <original SMILES>  (249) 
Cc1ccccc1NC(=O)c1cc(Cl)c2c(c1)[nH]c(=O)n2C

>  <generation_date>  (249) 
None

>  <tags>  (249) 
[]

>  <ref_mols>  (249) 
c0692a,c0894a

>  <alias>  (249) 
None

>  <original ID>  (249) 
KZFJISGZOSRQIS-UHFFFAOYSA-N

>  <exports>  (249) 
['/opt/xchem-fragalysis-2/maxwin/CHIKV_HIPPO/hippo_prod/CHIKV_prod11c_recipes/Recipe_1GJWBFH_poses.sdf', '/opt/xchem-fragalysis-2/maxwin/CHIKV_HIPPO/hippo_prod/CHIKV_prod11c_recipes/Recipe_1GJXK8G_poses.sdf', '/opt/xchem-fragalysis-2/maxwin/CHIKV_HIPPO/hippo_prod/CHIKV_prod11c_recipes/Recipe_1GJXW46_poses.sdf']

>  <method>  (249) 
None

>  <submitter_email>  (249) 
None

>  <submitter_name>  (249) 
None

$$$$
WBYDKIQWNIYSNG-UHFFFAOYSA-N
     RDKit          3D

 23 25  0  0  0  0  0  0  0  0999 V2000
   23.9069   13.6723   11.7108 C   0  0  0  0  0  0  0  0  0  0  0  0
   22.8747   12.9582   11.0357 N   0  0  0  0  0  0  0  0  0  0  0  0
   23.1356   12.0880    9.9668 C   0  0  0  0  0  0  0  0  0  0  0  0
   24.1483   12.0045    9.3042 O   0  0  0  0  0  0  0  0  0  0  0  0
   21.9775   11.3551    9.7667 N   0  0  0  0  0  0  0  0  0  0  0  0
   20.9834   11.8479   10.5869 C   0  0  0  0  0  0  0  0  0  0  0  0
   19.6610   11.4878   10.5868 C   0  0  0  0  0  0  0  0  0  0  0  0
   18.8046   12.2428   11.3870 C   0  0  0  0  0  0  0  0  0  0  0  0
   17.3650   11.8862   11.5091 C   0  0  0  0  0  0  0  0  0  0  0  0
   16.6919   12.4614   12.3529 O   0  0  0  0  0  0  0  0  0  0  0  0
   16.9002   10.9554   10.6128 N   0  0  0  0  0  0  0  0  0  0  0  0
   15.8538   10.0245   10.7662 C   0  0  0  0  0  0  0  0  0  0  0  0
   15.2886    9.5920    9.5601 C   0  0  0  0  0  0  0  0  0  0  0  0
   14.4107    8.5223    9.5345 C   0  0  0  0  0  0  0  0  0  0  0  0
   13.7378    8.2567    8.3877 O   0  0  0  0  0  0  0  0  0  0  0  0
   14.1740    7.7716   10.6667 C   0  0  0  0  0  0  0  0  0  0  0  0
   14.6756    8.2281   11.8828 C   0  0  0  0  0  0  0  0  0  0  0  0
   15.4459    9.3998   11.9536 C   0  0  0  0  0  0  0  0  0  0  0  0
   15.8559    9.9584   13.7157 Br  0  0  0  0  0  0  0  0  0  0  0  0
   19.3182   13.2895   12.1921 C   0  0  0  0  0  0  0  0  0  0  0  0
   20.6877   13.5922   12.2083 C   0  0  0  0  0  0  0  0  0  0  0  0
   21.2268   14.8938   13.1856 Cl  0  0  0  0  0  0  0  0  0  0  0  0
   21.5153   12.8669   11.3768 C   0  0  0  0  0  0  0  0  0  0  0  0
  1  2  1  0
  2  3  1  0
  3  4  2  0
  3  5  1  0
  5  6  1  0
  6  7  2  0
  7  8  1  0
  8  9  1  0
  9 10  2  0
  9 11  1  0
 11 12  1  0
 12 13  2  0
 13 14  1  0
 14 15  1  0
 14 16  2  0
 16 17  1  0
 17 18  2  0
 18 19  1  0
  8 20  2  0
 20 21  1  0
 21 22  1  0
 21 23  2  0
 23  2  1  0
 23  6  1  0
 18 12  1  0
M  END
>  <HIPPO ID>  (250) 
92041

>  <ref_url>  (250) 
None

>  <ref_pdb>  (250) 
c0270a

>  <inchikey>  (250) 
WBYDKIQWNIYSNG-UHFFFAOYSA-N

>  <original SMILES>  (250) 
Cn1c(=O)[nH]c2cc(C(=O)Nc3cc(O)ccc3Br)cc(Cl)c21

>  <generation_date>  (250) 
None

>  <tags>  (250) 
[]

>  <ref_mols>  (250) 
c0692a,c0894a

>  <alias>  (250) 
None

>  <original ID>  (250) 
WBYDKIQWNIYSNG-UHFFFAOYSA-N

>  <exports>  (250) 
['/opt/xchem-fragalysis-2/maxwin/CHIKV_HIPPO/hippo_prod/CHIKV_prod11b_recipes/Recipe_1GFD8FK_poses.sdf', '/opt/xchem-fragalysis-2/maxwin/CHIKV_HIPPO/hippo_prod/CHIKV_prod11c_recipes/Recipe_1GJWBFH_poses.sdf', '/opt/xchem-fragalysis-2/maxwin/CHIKV_HIPPO/hippo_prod/CHIKV_prod11c_recipes/Recipe_1GJXK8G_poses.sdf', '/opt/xchem-fragalysis-2/maxwin/CHIKV_HIPPO/hippo_prod/CHIKV_prod11c_recipes/Recipe_1GJXW46_poses.sdf']

>  <method>  (250) 
None

>  <submitter_email>  (250) 
None

>  <submitter_name>  (250) 
None

$$$$
DNHZTOQFYBEFOH-UHFFFAOYSA-N
     RDKit          3D

 23 25  0  0  0  0  0  0  0  0999 V2000
   23.8102   13.6109   11.7179 C   0  0  0  0  0  0  0  0  0  0  0  0
   22.7705   12.8624   11.0940 N   0  0  0  0  0  0  0  0  0  0  0  0
   23.0071   11.9418   10.0671 C   0  0  0  0  0  0  0  0  0  0  0  0
   24.0189   11.7849    9.4235 O   0  0  0  0  0  0  0  0  0  0  0  0
   21.8308   11.2475    9.8707 N   0  0  0  0  0  0  0  0  0  0  0  0
   20.8524   11.8084   10.6539 C   0  0  0  0  0  0  0  0  0  0  0  0
   19.5271   11.4905   10.6315 C   0  0  0  0  0  0  0  0  0  0  0  0
   18.6870   12.2982   11.3889 C   0  0  0  0  0  0  0  0  0  0  0  0
   17.2397   11.9937   11.4587 C   0  0  0  0  0  0  0  0  0  0  0  0
   16.5273   12.6692   12.1902 O   0  0  0  0  0  0  0  0  0  0  0  0
   16.8031   10.9759   10.6459 N   0  0  0  0  0  0  0  0  0  0  0  0
   15.8399    9.9824   10.9186 C   0  0  0  0  0  0  0  0  0  0  0  0
   15.4002    9.3048    9.7682 C   0  0  0  0  0  0  0  0  0  0  0  0
   14.5853    8.1870    9.8608 C   0  0  0  0  0  0  0  0  0  0  0  0
   14.2685    7.6734   11.1051 C   0  0  0  0  0  0  0  0  0  0  0  0
   14.6662    8.3510   12.2629 C   0  0  0  0  0  0  0  0  0  0  0  0
   14.0563    7.5911   13.9117 Br  0  0  0  0  0  0  0  0  0  0  0  0
   15.4164    9.5451   12.1964 C   0  0  0  0  0  0  0  0  0  0  0  0
   15.8461   10.3575   13.7372 S   0  0  0  0  0  0  0  0  0  0  0  0
   19.2145   13.3500   12.1793 C   0  0  0  0  0  0  0  0  0  0  0  0
   20.5921   13.6107   12.2129 C   0  0  0  0  0  0  0  0  0  0  0  0
   21.1640   14.9164   13.1649 Cl  0  0  0  0  0  0  0  0  0  0  0  0
   21.4064   12.8340   11.4183 C   0  0  0  0  0  0  0  0  0  0  0  0
  1  2  1  0
  2  3  1  0
  3  4  2  0
  3  5  1  0
  5  6  1  0
  6  7  2  0
  7  8  1  0
  8  9  1  0
  9 10  2  0
  9 11  1  0
 11 12  1  0
 12 13  2  0
 13 14  1  0
 14 15  2  0
 15 16  1  0
 16 17  1  0
 16 18  2  0
 18 19  1  0
  8 20  2  0
 20 21  1  0
 21 22  1  0
 21 23  2  0
 23  2  1  0
 23  6  1  0
 18 12  1  0
M  END
>  <HIPPO ID>  (251) 
92051

>  <ref_url>  (251) 
None

>  <ref_pdb>  (251) 
c0270a

>  <inchikey>  (251) 
DNHZTOQFYBEFOH-UHFFFAOYSA-N

>  <original SMILES>  (251) 
Cn1c(=O)[nH]c2cc(C(=O)Nc3cccc(Br)c3S)cc(Cl)c21

>  <generation_date>  (251) 
None

>  <tags>  (251) 
[]

>  <ref_mols>  (251) 
c0692a,c0894a

>  <alias>  (251) 
None

>  <original ID>  (251) 
DNHZTOQFYBEFOH-UHFFFAOYSA-N

>  <exports>  (251) 
['/opt/xchem-fragalysis-2/maxwin/CHIKV_HIPPO/hippo_prod/CHIKV_prod11c_recipes/Recipe_1GJWBFH_poses.sdf', '/opt/xchem-fragalysis-2/maxwin/CHIKV_HIPPO/hippo_prod/CHIKV_prod11c_recipes/Recipe_1GJXK8G_poses.sdf', '/opt/xchem-fragalysis-2/maxwin/CHIKV_HIPPO/hippo_prod/CHIKV_prod11c_recipes/Recipe_1GJXW46_poses.sdf']

>  <method>  (251) 
None

>  <submitter_email>  (251) 
None

>  <submitter_name>  (251) 
None

$$$$
NWDVZIRNQBDNMZ-UHFFFAOYSA-N
     RDKit          3D

 23 25  0  0  0  0  0  0  0  0999 V2000
   23.7388   13.6776   11.0924 C   0  0  0  0  0  0  0  0  0  0  0  0
   22.7185   12.7027   10.9268 N   0  0  0  0  0  0  0  0  0  0  0  0
   22.8301   11.7350    9.9140 C   0  0  0  0  0  0  0  0  0  0  0  0
   23.7212   11.5999    9.1066 O   0  0  0  0  0  0  0  0  0  0  0  0
   21.6506   11.0203    9.9105 N   0  0  0  0  0  0  0  0  0  0  0  0
   20.7508   11.6854   10.6997 C   0  0  0  0  0  0  0  0  0  0  0  0
   19.4192   11.4229   10.7380 C   0  0  0  0  0  0  0  0  0  0  0  0
   18.6373   12.3022   11.4733 C   0  0  0  0  0  0  0  0  0  0  0  0
   17.2014   11.9761   11.6205 C   0  0  0  0  0  0  0  0  0  0  0  0
   16.5692   12.4818   12.5333 O   0  0  0  0  0  0  0  0  0  0  0  0
   16.7191   11.1341   10.6476 N   0  0  0  0  0  0  0  0  0  0  0  0
   15.7522   10.1242   10.7316 C   0  0  0  0  0  0  0  0  0  0  0  0
   15.2700    9.7090    9.4812 C   0  0  0  0  0  0  0  0  0  0  0  0
   14.4390    8.6098    9.3611 C   0  0  0  0  0  0  0  0  0  0  0  0
   14.1580    7.8630   10.4865 C   0  0  0  0  0  0  0  0  0  0  0  0
   13.3759    6.7549   10.3858 O   0  0  0  0  0  0  0  0  0  0  0  0
   14.6106    8.2566   11.7404 C   0  0  0  0  0  0  0  0  0  0  0  0
   15.3641    9.4255   11.8813 C   0  0  0  0  0  0  0  0  0  0  0  0
   15.8271    9.8354   13.4887 Cl  0  0  0  0  0  0  0  0  0  0  0  0
   19.2232   13.3944   12.1548 C   0  0  0  0  0  0  0  0  0  0  0  0
   20.6094   13.6295   12.0820 C   0  0  0  0  0  0  0  0  0  0  0  0
   21.2543   15.0068   12.8745 Cl  0  0  0  0  0  0  0  0  0  0  0  0
   21.3733   12.7573   11.3329 C   0  0  0  0  0  0  0  0  0  0  0  0
  1  2  1  0
  2  3  1  0
  3  4  2  0
  3  5  1  0
  5  6  1  0
  6  7  2  0
  7  8  1  0
  8  9  1  0
  9 10  2  0
  9 11  1  0
 11 12  1  0
 12 13  2  0
 13 14  1  0
 14 15  2  0
 15 16  1  0
 15 17  1  0
 17 18  2  0
 18 19  1  0
  8 20  2  0
 20 21  1  0
 21 22  1  0
 21 23  2  0
 23  2  1  0
 23  6  1  0
 18 12  1  0
M  END
>  <HIPPO ID>  (252) 
92105

>  <ref_url>  (252) 
None

>  <ref_pdb>  (252) 
c0270a

>  <inchikey>  (252) 
NWDVZIRNQBDNMZ-UHFFFAOYSA-N

>  <original SMILES>  (252) 
Cn1c(=O)[nH]c2cc(C(=O)Nc3ccc(O)cc3Cl)cc(Cl)c21

>  <generation_date>  (252) 
None

>  <tags>  (252) 
[]

>  <ref_mols>  (252) 
c0692a,c0894a

>  <alias>  (252) 
None

>  <original ID>  (252) 
NWDVZIRNQBDNMZ-UHFFFAOYSA-N

>  <exports>  (252) 
['/opt/xchem-fragalysis-2/maxwin/CHIKV_HIPPO/hippo_prod/CHIKV_prod11c_recipes/Recipe_1GJWBFH_poses.sdf', '/opt/xchem-fragalysis-2/maxwin/CHIKV_HIPPO/hippo_prod/CHIKV_prod11c_recipes/Recipe_1GJXK8G_poses.sdf', '/opt/xchem-fragalysis-2/maxwin/CHIKV_HIPPO/hippo_prod/CHIKV_prod11c_recipes/Recipe_1GJXW46_poses.sdf']

>  <method>  (252) 
None

>  <submitter_email>  (252) 
None

>  <submitter_name>  (252) 
None

$$$$
ZMSYOYSKOOLDEF-UHFFFAOYSA-N
     RDKit          3D

 24 26  0  0  0  0  0  0  0  0999 V2000
   24.3615   13.7360   11.4265 C   0  0  0  0  0  0  0  0  0  0  0  0
   23.2307   13.1258   10.8110 N   0  0  0  0  0  0  0  0  0  0  0  0
   23.3772   12.2482    9.7221 C   0  0  0  0  0  0  0  0  0  0  0  0
   24.3172   12.1483    8.9613 O   0  0  0  0  0  0  0  0  0  0  0  0
   22.1994   11.5288    9.6370 N   0  0  0  0  0  0  0  0  0  0  0  0
   21.2953   12.0422   10.5425 C   0  0  0  0  0  0  0  0  0  0  0  0
   19.9784   11.7023   10.6694 C   0  0  0  0  0  0  0  0  0  0  0  0
   19.2160   12.4755   11.5480 C   0  0  0  0  0  0  0  0  0  0  0  0
   17.8120   12.1060   11.8324 C   0  0  0  0  0  0  0  0  0  0  0  0
   17.2781   12.4875   12.8655 O   0  0  0  0  0  0  0  0  0  0  0  0
   17.2499   11.2713   10.9109 N   0  0  0  0  0  0  0  0  0  0  0  0
   16.2693   10.3234   11.1688 C   0  0  0  0  0  0  0  0  0  0  0  0
   15.7284    9.7373   10.0487 C   0  0  0  0  0  0  0  0  0  0  0  0
   14.7717    8.7626   10.2102 C   0  0  0  0  0  0  0  0  0  0  0  0
   13.5443    8.5557    8.6415 I   0  0  0  0  0  0  0  0  0  0  0  0
   14.4861    8.2143   11.4508 C   0  0  0  0  0  0  0  0  0  0  0  0
   13.6186    7.1566   11.5269 O   0  0  0  0  0  0  0  0  0  0  0  0
   14.9961    8.8429   12.5821 C   0  0  0  0  0  0  0  0  0  0  0  0
   14.3650    8.3106   14.4972 I   0  0  0  0  0  0  0  0  0  0  0  0
   15.8660    9.9234   12.4433 C   0  0  0  0  0  0  0  0  0  0  0  0
   19.8064   13.5034   12.3084 C   0  0  0  0  0  0  0  0  0  0  0  0
   21.1715   13.7852   12.1917 C   0  0  0  0  0  0  0  0  0  0  0  0
   21.7940   15.0866   13.1149 Cl  0  0  0  0  0  0  0  0  0  0  0  0
   21.9098   13.0524   11.2821 C   0  0  0  0  0  0  0  0  0  0  0  0
  1  2  1  0
  2  3  1  0
  3  4  2  0
  3  5  1  0
  5  6  1  0
  6  7  2  0
  7  8  1  0
  8  9  1  0
  9 10  2  0
  9 11  1  0
 11 12  1  0
 12 13  2  0
 13 14  1  0
 14 15  1  0
 14 16  2  0
 16 17  1  0
 16 18  1  0
 18 19  1  0
 18 20  2  0
  8 21  2  0
 21 22  1  0
 22 23  1  0
 22 24  2  0
 24  2  1  0
 24  6  1  0
 20 12  1  0
M  END
>  <HIPPO ID>  (253) 
92286

>  <ref_url>  (253) 
None

>  <ref_pdb>  (253) 
c0270a

>  <inchikey>  (253) 
ZMSYOYSKOOLDEF-UHFFFAOYSA-N

>  <original SMILES>  (253) 
Cn1c(=O)[nH]c2cc(C(=O)Nc3cc(I)c(O)c(I)c3)cc(Cl)c21

>  <generation_date>  (253) 
None

>  <tags>  (253) 
[]

>  <ref_mols>  (253) 
c0692a,c0894a

>  <alias>  (253) 
None

>  <original ID>  (253) 
ZMSYOYSKOOLDEF-UHFFFAOYSA-N

>  <exports>  (253) 
['/opt/xchem-fragalysis-2/maxwin/CHIKV_HIPPO/hippo_prod/CHIKV_prod11_recipes/Recipe_1GERJCJ_poses.sdf', '/opt/xchem-fragalysis-2/maxwin/CHIKV_HIPPO/hippo_prod/CHIKV_prod11c_recipes/Recipe_1GJWBFH_poses.sdf', '/opt/xchem-fragalysis-2/maxwin/CHIKV_HIPPO/hippo_prod/CHIKV_prod11c_recipes/Recipe_1GJXK8G_poses.sdf', '/opt/xchem-fragalysis-2/maxwin/CHIKV_HIPPO/hippo_prod/CHIKV_prod11c_recipes/Recipe_1GJXW46_poses.sdf']

>  <method>  (253) 
None

>  <submitter_email>  (253) 
None

>  <submitter_name>  (253) 
None

$$$$
XRUPMBUAEHNJPR-UHFFFAOYSA-N
     RDKit          3D

 24 26  0  0  0  0  0  0  0  0999 V2000
   23.7368   13.6926   11.0848 C   0  0  0  0  0  0  0  0  0  0  0  0
   22.7216   12.7147   10.9096 N   0  0  0  0  0  0  0  0  0  0  0  0
   22.8415   11.7601    9.8849 C   0  0  0  0  0  0  0  0  0  0  0  0
   23.7317   11.6492    9.0721 O   0  0  0  0  0  0  0  0  0  0  0  0
   21.6689   11.0335    9.8774 N   0  0  0  0  0  0  0  0  0  0  0  0
   20.7605   11.6852   10.6687 C   0  0  0  0  0  0  0  0  0  0  0  0
   19.4297   11.4124   10.7018 C   0  0  0  0  0  0  0  0  0  0  0  0
   18.6445   12.2761   11.4496 C   0  0  0  0  0  0  0  0  0  0  0  0
   17.2291   11.9037   11.6376 C   0  0  0  0  0  0  0  0  0  0  0  0
   16.6522   12.2747   12.6520 O   0  0  0  0  0  0  0  0  0  0  0  0
   16.6991   11.1153   10.6422 N   0  0  0  0  0  0  0  0  0  0  0  0
   15.7402   10.0960   10.7605 C   0  0  0  0  0  0  0  0  0  0  0  0
   15.1851    9.6729    9.5481 C   0  0  0  0  0  0  0  0  0  0  0  0
   14.3509    8.5721    9.5133 C   0  0  0  0  0  0  0  0  0  0  0  0
   13.6939    8.3002    8.3805 F   0  0  0  0  0  0  0  0  0  0  0  0
   14.1768    7.7993   10.6482 C   0  0  0  0  0  0  0  0  0  0  0  0
   13.2244    6.3710   10.6036 Cl  0  0  0  0  0  0  0  0  0  0  0  0
   14.7164    8.2226   11.8641 C   0  0  0  0  0  0  0  0  0  0  0  0
   15.4071    9.4369   11.9599 C   0  0  0  0  0  0  0  0  0  0  0  0
   15.9457    9.7873   13.2115 N   0  0  0  0  0  0  0  0  0  0  0  0
   19.2208   13.3674   12.1410 C   0  0  0  0  0  0  0  0  0  0  0  0
   20.6043   13.6166   12.0679 C   0  0  0  0  0  0  0  0  0  0  0  0
   21.2367   14.9909   12.8754 Cl  0  0  0  0  0  0  0  0  0  0  0  0
   21.3751   12.7564   11.3124 C   0  0  0  0  0  0  0  0  0  0  0  0
  1  2  1  0
  2  3  1  0
  3  4  2  0
  3  5  1  0
  5  6  1  0
  6  7  2  0
  7  8  1  0
  8  9  1  0
  9 10  2  0
  9 11  1  0
 11 12  1  0
 12 13  2  0
 13 14  1  0
 14 15  1  0
 14 16  2  0
 16 17  1  0
 16 18  1  0
 18 19  2  0
 19 20  1  0
  8 21  2  0
 21 22  1  0
 22 23  1  0
 22 24  2  0
 24  2  1  0
 24  6  1  0
 19 12  1  0
M  END
>  <HIPPO ID>  (254) 
92406

>  <ref_url>  (254) 
None

>  <ref_pdb>  (254) 
c0270a

>  <inchikey>  (254) 
XRUPMBUAEHNJPR-UHFFFAOYSA-N

>  <original SMILES>  (254) 
Cn1c(=O)[nH]c2cc(C(=O)Nc3cc(F)c(Cl)cc3N)cc(Cl)c21

>  <generation_date>  (254) 
None

>  <tags>  (254) 
[]

>  <ref_mols>  (254) 
c0692a,c0894a

>  <alias>  (254) 
None

>  <original ID>  (254) 
XRUPMBUAEHNJPR-UHFFFAOYSA-N

>  <exports>  (254) 
['/opt/xchem-fragalysis-2/maxwin/CHIKV_HIPPO/hippo_prod/CHIKV_prod11_recipes/Recipe_1GERJCJ_poses.sdf', '/opt/xchem-fragalysis-2/maxwin/CHIKV_HIPPO/hippo_prod/CHIKV_prod11c_recipes/Recipe_1GJWBFH_poses.sdf', '/opt/xchem-fragalysis-2/maxwin/CHIKV_HIPPO/hippo_prod/CHIKV_prod11c_recipes/Recipe_1GJXK8G_poses.sdf', '/opt/xchem-fragalysis-2/maxwin/CHIKV_HIPPO/hippo_prod/CHIKV_prod11c_recipes/Recipe_1GJXW46_poses.sdf']

>  <method>  (254) 
None

>  <submitter_email>  (254) 
None

>  <submitter_name>  (254) 
None

$$$$
RXQNQAGELFYFJX-UHFFFAOYSA-N
     RDKit          3D

 24 26  0  0  0  0  0  0  0  0999 V2000
   24.1503   13.7111   11.5892 C   0  0  0  0  0  0  0  0  0  0  0  0
   23.0766   13.0545   10.9209 N   0  0  0  0  0  0  0  0  0  0  0  0
   23.2953   12.1940    9.8327 C   0  0  0  0  0  0  0  0  0  0  0  0
   24.2770   12.1202    9.1234 O   0  0  0  0  0  0  0  0  0  0  0  0
   22.1345   11.4575    9.6758 N   0  0  0  0  0  0  0  0  0  0  0  0
   21.1744   11.9396   10.5414 C   0  0  0  0  0  0  0  0  0  0  0  0
   19.8559   11.5753   10.5949 C   0  0  0  0  0  0  0  0  0  0  0  0
   19.0332   12.3285   11.4319 C   0  0  0  0  0  0  0  0  0  0  0  0
   17.6127   11.9531   11.6259 C   0  0  0  0  0  0  0  0  0  0  0  0
   17.0040   12.4073   12.5894 O   0  0  0  0  0  0  0  0  0  0  0  0
   17.0913   11.0870   10.7011 N   0  0  0  0  0  0  0  0  0  0  0  0
   16.0463   10.1687   10.8854 C   0  0  0  0  0  0  0  0  0  0  0  0
   15.4638    9.7190    9.7040 C   0  0  0  0  0  0  0  0  0  0  0  0
   14.5063    8.7297    9.7542 C   0  0  0  0  0  0  0  0  0  0  0  0
   13.4936    8.5173    8.4153 Cl  0  0  0  0  0  0  0  0  0  0  0  0
   14.2707    8.0450   10.9298 C   0  0  0  0  0  0  0  0  0  0  0  0
   13.3630    7.0577   10.9705 F   0  0  0  0  0  0  0  0  0  0  0  0
   14.8347    8.4922   12.1154 C   0  0  0  0  0  0  0  0  0  0  0  0
   15.6193    9.6482   12.1257 C   0  0  0  0  0  0  0  0  0  0  0  0
   16.1286   10.0774   13.3622 N   0  0  0  0  0  0  0  0  0  0  0  0
   19.5715   13.3657   12.2270 C   0  0  0  0  0  0  0  0  0  0  0  0
   20.9383   13.6686   12.1916 C   0  0  0  0  0  0  0  0  0  0  0  0
   21.5007   14.9674   13.1580 Cl  0  0  0  0  0  0  0  0  0  0  0  0
   21.7338   12.9536   11.3193 C   0  0  0  0  0  0  0  0  0  0  0  0
  1  2  1  0
  2  3  1  0
  3  4  2  0
  3  5  1  0
  5  6  1  0
  6  7  2  0
  7  8  1  0
  8  9  1  0
  9 10  2  0
  9 11  1  0
 11 12  1  0
 12 13  2  0
 13 14  1  0
 14 15  1  0
 14 16  2  0
 16 17  1  0
 16 18  1  0
 18 19  2  0
 19 20  1  0
  8 21  2  0
 21 22  1  0
 22 23  1  0
 22 24  2  0
 24  2  1  0
 24  6  1  0
 19 12  1  0
M  END
>  <HIPPO ID>  (255) 
92407

>  <ref_url>  (255) 
None

>  <ref_pdb>  (255) 
c0270a

>  <inchikey>  (255) 
RXQNQAGELFYFJX-UHFFFAOYSA-N

>  <original SMILES>  (255) 
Cn1c(=O)[nH]c2cc(C(=O)Nc3cc(Cl)c(F)cc3N)cc(Cl)c21

>  <generation_date>  (255) 
None

>  <tags>  (255) 
[]

>  <ref_mols>  (255) 
c0692a,c0894a

>  <alias>  (255) 
None

>  <original ID>  (255) 
RXQNQAGELFYFJX-UHFFFAOYSA-N

>  <exports>  (255) 
['/opt/xchem-fragalysis-2/maxwin/CHIKV_HIPPO/hippo_prod/CHIKV_prod11_recipes/Recipe_1GERJCJ_poses.sdf', '/opt/xchem-fragalysis-2/maxwin/CHIKV_HIPPO/hippo_prod/CHIKV_prod11c_recipes/Recipe_1GJWBFH_poses.sdf', '/opt/xchem-fragalysis-2/maxwin/CHIKV_HIPPO/hippo_prod/CHIKV_prod11c_recipes/Recipe_1GJXK8G_poses.sdf', '/opt/xchem-fragalysis-2/maxwin/CHIKV_HIPPO/hippo_prod/CHIKV_prod11c_recipes/Recipe_1GJXW46_poses.sdf']

>  <method>  (255) 
None

>  <submitter_email>  (255) 
None

>  <submitter_name>  (255) 
None

$$$$
LPXOGBNOGQWUNK-UHFFFAOYSA-N
     RDKit          3D

 24 26  0  0  0  0  0  0  0  0999 V2000
   13.5926    8.3535    8.7191 C   0  0  0  0  0  0  0  0  0  0  0  0
   14.4910    8.5537    9.8849 C   0  0  0  0  0  0  0  0  0  0  0  0
   15.4128    9.5969    9.8207 C   0  0  0  0  0  0  0  0  0  0  0  0
   15.9972   10.1059   10.9776 C   0  0  0  0  0  0  0  0  0  0  0  0
   17.0180   11.0387   10.7372 N   0  0  0  0  0  0  0  0  0  0  0  0
   17.4988   11.9998   11.5884 C   0  0  0  0  0  0  0  0  0  0  0  0
   16.8342   12.6089   12.4143 O   0  0  0  0  0  0  0  0  0  0  0  0
   18.9400   12.3256   11.4358 C   0  0  0  0  0  0  0  0  0  0  0  0
   19.4885   13.3612   12.2282 C   0  0  0  0  0  0  0  0  0  0  0  0
   20.8607   13.6471   12.2021 C   0  0  0  0  0  0  0  0  0  0  0  0
   21.4341   14.9473   13.1603 Cl  0  0  0  0  0  0  0  0  0  0  0  0
   21.6529   12.9177   11.3392 C   0  0  0  0  0  0  0  0  0  0  0  0
   21.0857   11.8998   10.5727 C   0  0  0  0  0  0  0  0  0  0  0  0
   19.7623   11.5525   10.6171 C   0  0  0  0  0  0  0  0  0  0  0  0
   22.0397   11.4035    9.7094 N   0  0  0  0  0  0  0  0  0  0  0  0
   23.1957   12.1532    9.8370 C   0  0  0  0  0  0  0  0  0  0  0  0
   24.1538   12.0955    9.0949 O   0  0  0  0  0  0  0  0  0  0  0  0
   22.9935   13.0118   10.9293 N   0  0  0  0  0  0  0  0  0  0  0  0
   24.0701   13.6946   11.5656 C   0  0  0  0  0  0  0  0  0  0  0  0
   15.6086    9.5726   12.2146 C   0  0  0  0  0  0  0  0  0  0  0  0
   16.0645   10.1872   13.7532 Cl  0  0  0  0  0  0  0  0  0  0  0  0
   14.8345    8.4093   12.2534 C   0  0  0  0  0  0  0  0  0  0  0  0
   14.3002    7.8811   11.0861 C   0  0  0  0  0  0  0  0  0  0  0  0
   13.2980    6.4796   11.1931 Cl  0  0  0  0  0  0  0  0  0  0  0  0
  1  2  1  0
  2  3  2  0
  3  4  1  0
  4  5  1  0
  5  6  1  0
  6  7  2  0
  6  8  1  0
  8  9  2  0
  9 10  1  0
 10 11  1  0
 10 12  2  0
 12 13  1  0
 13 14  2  0
 13 15  1  0
 15 16  1  0
 16 17  2  0
 16 18  1  0
 18 19  1  0
  4 20  2  0
 20 21  1  0
 20 22  1  0
 22 23  2  0
 23 24  1  0
 23  2  1  0
 14  8  1  0
 18 12  1  0
M  END
>  <HIPPO ID>  (256) 
92482

>  <ref_url>  (256) 
None

>  <ref_pdb>  (256) 
c0270a

>  <inchikey>  (256) 
LPXOGBNOGQWUNK-UHFFFAOYSA-N

>  <original SMILES>  (256) 
Cc1cc(NC(=O)c2cc(Cl)c3c(c2)[nH]c(=O)n3C)c(Cl)cc1Cl

>  <generation_date>  (256) 
None

>  <tags>  (256) 
[]

>  <ref_mols>  (256) 
c0692a,c0894a

>  <alias>  (256) 
None

>  <original ID>  (256) 
LPXOGBNOGQWUNK-UHFFFAOYSA-N

>  <exports>  (256) 
['/opt/xchem-fragalysis-2/maxwin/CHIKV_HIPPO/hippo_prod/CHIKV_prod11c_recipes/Recipe_1GJWBFH_poses.sdf', '/opt/xchem-fragalysis-2/maxwin/CHIKV_HIPPO/hippo_prod/CHIKV_prod11c_recipes/Recipe_1GJXK8G_poses.sdf', '/opt/xchem-fragalysis-2/maxwin/CHIKV_HIPPO/hippo_prod/CHIKV_prod11c_recipes/Recipe_1GJXW46_poses.sdf']

>  <method>  (256) 
None

>  <submitter_email>  (256) 
None

>  <submitter_name>  (256) 
None

$$$$
QHMYTYAXEQZYPM-UHFFFAOYSA-N
     RDKit          3D

 24 26  0  0  0  0  0  0  0  0999 V2000
   23.8989   13.6333   11.5672 C   0  0  0  0  0  0  0  0  0  0  0  0
   22.8282   12.9032   10.9753 N   0  0  0  0  0  0  0  0  0  0  0  0
   23.0197   12.0053    9.9167 C   0  0  0  0  0  0  0  0  0  0  0  0
   23.9713   11.9022    9.1766 O   0  0  0  0  0  0  0  0  0  0  0  0
   21.8583   11.2709    9.8012 N   0  0  0  0  0  0  0  0  0  0  0  0
   20.9089   11.8197   10.6263 C   0  0  0  0  0  0  0  0  0  0  0  0
   19.5862   11.4947   10.6441 C   0  0  0  0  0  0  0  0  0  0  0  0
   18.7660   12.2967   11.4278 C   0  0  0  0  0  0  0  0  0  0  0  0
   17.3337   11.9534   11.5558 C   0  0  0  0  0  0  0  0  0  0  0  0
   16.6877   12.4554   12.4686 O   0  0  0  0  0  0  0  0  0  0  0  0
   16.8483   11.0702   10.6200 N   0  0  0  0  0  0  0  0  0  0  0  0
   15.8579   10.0901   10.7974 C   0  0  0  0  0  0  0  0  0  0  0  0
   15.4143    9.4820    9.6140 C   0  0  0  0  0  0  0  0  0  0  0  0
   14.5750    8.3769    9.6489 C   0  0  0  0  0  0  0  0  0  0  0  0
   14.2482    7.8137   10.8683 C   0  0  0  0  0  0  0  0  0  0  0  0
   13.2085    6.2375   10.9069 Br  0  0  0  0  0  0  0  0  0  0  0  0
   14.6415    8.4475   12.0455 C   0  0  0  0  0  0  0  0  0  0  0  0
   14.2002    7.9912   13.2304 F   0  0  0  0  0  0  0  0  0  0  0  0
   15.3900    9.6327   12.0392 C   0  0  0  0  0  0  0  0  0  0  0  0
   15.8299   10.1495   13.2783 N   0  0  0  0  0  0  0  0  0  0  0  0
   19.3110   13.3447   12.2087 C   0  0  0  0  0  0  0  0  0  0  0  0
   20.6880   13.6144   12.1982 C   0  0  0  0  0  0  0  0  0  0  0  0
   21.2739   14.9227   13.1376 Cl  0  0  0  0  0  0  0  0  0  0  0  0
   21.4819   12.8502   11.3697 C   0  0  0  0  0  0  0  0  0  0  0  0
  1  2  1  0
  2  3  1  0
  3  4  2  0
  3  5  1  0
  5  6  1  0
  6  7  2  0
  7  8  1  0
  8  9  1  0
  9 10  2  0
  9 11  1  0
 11 12  1  0
 12 13  2  0
 13 14  1  0
 14 15  2  0
 15 16  1  0
 15 17  1  0
 17 18  1  0
 17 19  2  0
 19 20  1  0
  8 21  2  0
 21 22  1  0
 22 23  1  0
 22 24  2  0
 24  2  1  0
 24  6  1  0
 19 12  1  0
M  END
>  <HIPPO ID>  (257) 
92523

>  <ref_url>  (257) 
None

>  <ref_pdb>  (257) 
c0270a

>  <inchikey>  (257) 
QHMYTYAXEQZYPM-UHFFFAOYSA-N

>  <original SMILES>  (257) 
Cn1c(=O)[nH]c2cc(C(=O)Nc3ccc(Br)c(F)c3N)cc(Cl)c21

>  <generation_date>  (257) 
None

>  <tags>  (257) 
[]

>  <ref_mols>  (257) 
c0692a,c0894a

>  <alias>  (257) 
None

>  <original ID>  (257) 
QHMYTYAXEQZYPM-UHFFFAOYSA-N

>  <exports>  (257) 
['/opt/xchem-fragalysis-2/maxwin/CHIKV_HIPPO/hippo_prod/CHIKV_prod11c_recipes/Recipe_1GJWBFH_poses.sdf', '/opt/xchem-fragalysis-2/maxwin/CHIKV_HIPPO/hippo_prod/CHIKV_prod11c_recipes/Recipe_1GJXK8G_poses.sdf', '/opt/xchem-fragalysis-2/maxwin/CHIKV_HIPPO/hippo_prod/CHIKV_prod11c_recipes/Recipe_1GJXW46_poses.sdf']

>  <method>  (257) 
None

>  <submitter_email>  (257) 
None

>  <submitter_name>  (257) 
None

$$$$
KBXPCBNPUUMLOX-UHFFFAOYSA-N
     RDKit          3D

 24 26  0  0  0  0  0  0  0  0999 V2000
   24.0350   13.6939   11.6874 C   0  0  0  0  0  0  0  0  0  0  0  0
   22.9877   13.0143   10.9999 N   0  0  0  0  0  0  0  0  0  0  0  0
   23.2372   12.1474    9.9253 C   0  0  0  0  0  0  0  0  0  0  0  0
   24.2453   12.0588    9.2566 O   0  0  0  0  0  0  0  0  0  0  0  0
   22.0759   11.4201    9.7290 N   0  0  0  0  0  0  0  0  0  0  0  0
   21.0929   11.9061   10.5666 C   0  0  0  0  0  0  0  0  0  0  0  0
   19.7729   11.5407   10.5875 C   0  0  0  0  0  0  0  0  0  0  0  0
   18.9261   12.2909   11.4031 C   0  0  0  0  0  0  0  0  0  0  0  0
   17.4936   11.9266   11.5626 C   0  0  0  0  0  0  0  0  0  0  0  0
   16.8320   12.5027   12.4157 O   0  0  0  0  0  0  0  0  0  0  0  0
   17.0236   10.9527   10.7157 N   0  0  0  0  0  0  0  0  0  0  0  0
   16.0078   10.0161   11.0010 C   0  0  0  0  0  0  0  0  0  0  0  0
   15.5180    9.2687    9.9182 C   0  0  0  0  0  0  0  0  0  0  0  0
   15.9794    9.4753    8.6211 N   0  0  0  0  0  0  0  0  0  0  0  0
   14.7291    8.1418   10.1556 C   0  0  0  0  0  0  0  0  0  0  0  0
   14.3691    7.7888   11.4498 C   0  0  0  0  0  0  0  0  0  0  0  0
   14.7731    8.5919   12.5131 C   0  0  0  0  0  0  0  0  0  0  0  0
   14.1939    8.1751   14.2672 Br  0  0  0  0  0  0  0  0  0  0  0  0
   15.5874    9.6982   12.2945 C   0  0  0  0  0  0  0  0  0  0  0  0
   16.0690   10.3526   13.3595 F   0  0  0  0  0  0  0  0  0  0  0  0
   19.4477   13.3347   12.2050 C   0  0  0  0  0  0  0  0  0  0  0  0
   20.8156   13.6391   12.2042 C   0  0  0  0  0  0  0  0  0  0  0  0
   21.3606   14.9375   13.1814 Cl  0  0  0  0  0  0  0  0  0  0  0  0
   21.6329   12.9206   11.3566 C   0  0  0  0  0  0  0  0  0  0  0  0
  1  2  1  0
  2  3  1  0
  3  4  2  0
  3  5  1  0
  5  6  1  0
  6  7  2  0
  7  8  1  0
  8  9  1  0
  9 10  2  0
  9 11  1  0
 11 12  1  0
 12 13  2  0
 13 14  1  0
 13 15  1  0
 15 16  2  0
 16 17  1  0
 17 18  1  0
 17 19  2  0
 19 20  1  0
  8 21  2  0
 21 22  1  0
 22 23  1  0
 22 24  2  0
 24  2  1  0
 24  6  1  0
 19 12  1  0
M  END
>  <HIPPO ID>  (258) 
92546

>  <ref_url>  (258) 
None

>  <ref_pdb>  (258) 
c0270a

>  <inchikey>  (258) 
KBXPCBNPUUMLOX-UHFFFAOYSA-N

>  <original SMILES>  (258) 
Cn1c(=O)[nH]c2cc(C(=O)Nc3c(N)ccc(Br)c3F)cc(Cl)c21

>  <generation_date>  (258) 
None

>  <tags>  (258) 
[]

>  <ref_mols>  (258) 
c0692a,c0894a

>  <alias>  (258) 
None

>  <original ID>  (258) 
KBXPCBNPUUMLOX-UHFFFAOYSA-N

>  <exports>  (258) 
['/opt/xchem-fragalysis-2/maxwin/CHIKV_HIPPO/hippo_prod/CHIKV_prod11c_recipes/Recipe_1GJWBFH_poses.sdf', '/opt/xchem-fragalysis-2/maxwin/CHIKV_HIPPO/hippo_prod/CHIKV_prod11c_recipes/Recipe_1GJXK8G_poses.sdf', '/opt/xchem-fragalysis-2/maxwin/CHIKV_HIPPO/hippo_prod/CHIKV_prod11c_recipes/Recipe_1GJXW46_poses.sdf']

>  <method>  (258) 
None

>  <submitter_email>  (258) 
None

>  <submitter_name>  (258) 
None

$$$$
XQBWNYIULVAPAO-UHFFFAOYSA-N
     RDKit          3D

 24 26  0  0  0  0  0  0  0  0999 V2000
   13.2732    6.0111   10.1353 C   0  0  0  0  0  0  0  0  0  0  0  0
   13.3857    6.9572   11.1820 O   0  0  0  0  0  0  0  0  0  0  0  0
   14.2824    7.9666   10.9753 C   0  0  0  0  0  0  0  0  0  0  0  0
   14.6870    8.4228    9.7288 C   0  0  0  0  0  0  0  0  0  0  0  0
   15.5906    9.4722    9.6392 C   0  0  0  0  0  0  0  0  0  0  0  0
   16.0431   10.1145   10.7908 C   0  0  0  0  0  0  0  0  0  0  0  0
   17.0468   11.0687   10.6237 N   0  0  0  0  0  0  0  0  0  0  0  0
   17.5578   11.8829   11.6075 C   0  0  0  0  0  0  0  0  0  0  0  0
   16.9723   12.2487   12.6184 O   0  0  0  0  0  0  0  0  0  0  0  0
   18.9695   12.2879   11.4244 C   0  0  0  0  0  0  0  0  0  0  0  0
   19.4977   13.3330   12.2168 C   0  0  0  0  0  0  0  0  0  0  0  0
   20.8635   13.6474   12.1802 C   0  0  0  0  0  0  0  0  0  0  0  0
   21.4175   14.9598   13.1326 Cl  0  0  0  0  0  0  0  0  0  0  0  0
   21.6642   12.9326   11.3125 C   0  0  0  0  0  0  0  0  0  0  0  0
   21.1111   11.9040   10.5500 C   0  0  0  0  0  0  0  0  0  0  0  0
   19.7981   11.5324   10.5993 C   0  0  0  0  0  0  0  0  0  0  0  0
   22.0651   11.4203    9.6838 N   0  0  0  0  0  0  0  0  0  0  0  0
   23.2042   12.1913    9.7995 C   0  0  0  0  0  0  0  0  0  0  0  0
   24.1484   12.1470    9.0407 O   0  0  0  0  0  0  0  0  0  0  0  0
   22.9994   13.0486   10.8916 N   0  0  0  0  0  0  0  0  0  0  0  0
   24.0790   13.7188   11.5362 C   0  0  0  0  0  0  0  0  0  0  0  0
   15.5722    9.7271   12.0365 C   0  0  0  0  0  0  0  0  0  0  0  0
   14.7133    8.6469   12.1171 C   0  0  0  0  0  0  0  0  0  0  0  0
   14.2394    8.3026   13.3239 F   0  0  0  0  0  0  0  0  0  0  0  0
  1  2  1  0
  2  3  1  0
  3  4  2  0
  4  5  1  0
  5  6  2  0
  6  7  1  0
  7  8  1  0
  8  9  2  0
  8 10  1  0
 10 11  2  0
 11 12  1  0
 12 13  1  0
 12 14  2  0
 14 15  1  0
 15 16  2  0
 15 17  1  0
 17 18  1  0
 18 19  2  0
 18 20  1  0
 20 21  1  0
  6 22  1  0
 22 23  2  0
 23 24  1  0
 23  3  1  0
 16 10  1  0
 20 14  1  0
M  END
>  <HIPPO ID>  (259) 
92573

>  <ref_url>  (259) 
None

>  <ref_pdb>  (259) 
c0270a

>  <inchikey>  (259) 
XQBWNYIULVAPAO-UHFFFAOYSA-N

>  <original SMILES>  (259) 
COc1ccc(NC(=O)c2cc(Cl)c3c(c2)[nH]c(=O)n3C)cc1F

>  <generation_date>  (259) 
None

>  <tags>  (259) 
[]

>  <ref_mols>  (259) 
c0692a,c0894a

>  <alias>  (259) 
None

>  <original ID>  (259) 
XQBWNYIULVAPAO-UHFFFAOYSA-N

>  <exports>  (259) 
['/opt/xchem-fragalysis-2/maxwin/CHIKV_HIPPO/hippo_prod/CHIKV_prod11c_recipes/Recipe_1GJWBFH_poses.sdf', '/opt/xchem-fragalysis-2/maxwin/CHIKV_HIPPO/hippo_prod/CHIKV_prod11c_recipes/Recipe_1GJXK8G_poses.sdf', '/opt/xchem-fragalysis-2/maxwin/CHIKV_HIPPO/hippo_prod/CHIKV_prod11c_recipes/Recipe_1GJXW46_poses.sdf']

>  <method>  (259) 
None

>  <submitter_email>  (259) 
None

>  <submitter_name>  (259) 
None

$$$$
XQVWEFPZQVNVAK-UHFFFAOYSA-N
     RDKit          3D

 24 26  0  0  0  0  0  0  0  0999 V2000
   13.2737    6.0235   10.1569 C   0  0  0  0  0  0  0  0  0  0  0  0
   13.4081    6.9507   11.2191 O   0  0  0  0  0  0  0  0  0  0  0  0
   14.3116    7.9602   11.0266 C   0  0  0  0  0  0  0  0  0  0  0  0
   14.6822    8.4298    9.7690 C   0  0  0  0  0  0  0  0  0  0  0  0
   15.5898    9.4730    9.6553 C   0  0  0  0  0  0  0  0  0  0  0  0
   16.0816   10.1018   10.7948 C   0  0  0  0  0  0  0  0  0  0  0  0
   17.0924   11.0472   10.6093 N   0  0  0  0  0  0  0  0  0  0  0  0
   17.6077   11.8729   11.5814 C   0  0  0  0  0  0  0  0  0  0  0  0
   17.0182   12.2505   12.5868 O   0  0  0  0  0  0  0  0  0  0  0  0
   19.0206   12.2795   11.3979 C   0  0  0  0  0  0  0  0  0  0  0  0
   19.5408   13.3200   12.2015 C   0  0  0  0  0  0  0  0  0  0  0  0
   20.9044   13.6410   12.1754 C   0  0  0  0  0  0  0  0  0  0  0  0
   21.4459   14.9453   13.1465 Cl  0  0  0  0  0  0  0  0  0  0  0  0
   21.7137   12.9399   11.3042 C   0  0  0  0  0  0  0  0  0  0  0  0
   21.1713   11.9202   10.5221 C   0  0  0  0  0  0  0  0  0  0  0  0
   19.8580   11.5388   10.5663 C   0  0  0  0  0  0  0  0  0  0  0  0
   22.1382   11.4573    9.6544 N   0  0  0  0  0  0  0  0  0  0  0  0
   23.2811   12.2206    9.8047 C   0  0  0  0  0  0  0  0  0  0  0  0
   24.2503   12.1796    9.0758 O   0  0  0  0  0  0  0  0  0  0  0  0
   23.0544   13.0650   10.9037 N   0  0  0  0  0  0  0  0  0  0  0  0
   24.1211   13.7257   11.5793 C   0  0  0  0  0  0  0  0  0  0  0  0
   15.6508    9.7023   12.0539 C   0  0  0  0  0  0  0  0  0  0  0  0
   14.7919    8.6175   12.1695 C   0  0  0  0  0  0  0  0  0  0  0  0
   14.3295    8.1381   13.7676 Cl  0  0  0  0  0  0  0  0  0  0  0  0
  1  2  1  0
  2  3  1  0
  3  4  2  0
  4  5  1  0
  5  6  2  0
  6  7  1  0
  7  8  1  0
  8  9  2  0
  8 10  1  0
 10 11  2  0
 11 12  1  0
 12 13  1  0
 12 14  2  0
 14 15  1  0
 15 16  2  0
 15 17  1  0
 17 18  1  0
 18 19  2  0
 18 20  1  0
 20 21  1  0
  6 22  1  0
 22 23  2  0
 23 24  1  0
 23  3  1  0
 16 10  1  0
 20 14  1  0
M  END
>  <HIPPO ID>  (260) 
92657

>  <ref_url>  (260) 
None

>  <ref_pdb>  (260) 
c0270a

>  <inchikey>  (260) 
XQVWEFPZQVNVAK-UHFFFAOYSA-N

>  <original SMILES>  (260) 
COc1ccc(NC(=O)c2cc(Cl)c3c(c2)[nH]c(=O)n3C)cc1Cl

>  <generation_date>  (260) 
None

>  <tags>  (260) 
[]

>  <ref_mols>  (260) 
c0692a,c0894a

>  <alias>  (260) 
None

>  <original ID>  (260) 
XQVWEFPZQVNVAK-UHFFFAOYSA-N

>  <exports>  (260) 
['/opt/xchem-fragalysis-2/maxwin/CHIKV_HIPPO/hippo_prod/CHIKV_prod11c_recipes/Recipe_1GJWBFH_poses.sdf', '/opt/xchem-fragalysis-2/maxwin/CHIKV_HIPPO/hippo_prod/CHIKV_prod11c_recipes/Recipe_1GJXK8G_poses.sdf', '/opt/xchem-fragalysis-2/maxwin/CHIKV_HIPPO/hippo_prod/CHIKV_prod11c_recipes/Recipe_1GJXW46_poses.sdf']

>  <method>  (260) 
None

>  <submitter_email>  (260) 
None

>  <submitter_name>  (260) 
None

$$$$
ISGLQXMQHBXJDN-UHFFFAOYSA-N
     RDKit          3D

 24 26  0  0  0  0  0  0  0  0999 V2000
   23.9293   13.6970   11.6078 C   0  0  0  0  0  0  0  0  0  0  0  0
   22.8744   12.9922   10.9586 N   0  0  0  0  0  0  0  0  0  0  0  0
   23.1045   12.1336    9.8725 C   0  0  0  0  0  0  0  0  0  0  0  0
   24.0685   12.0915    9.1377 O   0  0  0  0  0  0  0  0  0  0  0  0
   21.9643   11.3624    9.7351 N   0  0  0  0  0  0  0  0  0  0  0  0
   20.9905   11.8475   10.5810 C   0  0  0  0  0  0  0  0  0  0  0  0
   19.6730   11.4781   10.6052 C   0  0  0  0  0  0  0  0  0  0  0  0
   18.8252   12.2319   11.4147 C   0  0  0  0  0  0  0  0  0  0  0  0
   17.3923   11.8569   11.5480 C   0  0  0  0  0  0  0  0  0  0  0  0
   16.7337   12.3589   12.4469 O   0  0  0  0  0  0  0  0  0  0  0  0
   16.9211   10.9911   10.5914 N   0  0  0  0  0  0  0  0  0  0  0  0
   15.8626   10.0695   10.6773 C   0  0  0  0  0  0  0  0  0  0  0  0
   15.3050    9.7266    9.4400 C   0  0  0  0  0  0  0  0  0  0  0  0
   14.3993    8.6912    9.3448 C   0  0  0  0  0  0  0  0  0  0  0  0
   13.7544    8.4710    8.1964 F   0  0  0  0  0  0  0  0  0  0  0  0
   14.1289    7.9004   10.4424 C   0  0  0  0  0  0  0  0  0  0  0  0
   13.3086    6.8183   10.3205 O   0  0  0  0  0  0  0  0  0  0  0  0
   14.6307    8.2472   11.6892 C   0  0  0  0  0  0  0  0  0  0  0  0
   15.4408    9.3818   11.8280 C   0  0  0  0  0  0  0  0  0  0  0  0
   15.9049    9.7718   13.4406 Cl  0  0  0  0  0  0  0  0  0  0  0  0
   19.3439   13.2810   12.2113 C   0  0  0  0  0  0  0  0  0  0  0  0
   20.7123   13.5945   12.2006 C   0  0  0  0  0  0  0  0  0  0  0  0
   21.2555   14.9069   13.1605 Cl  0  0  0  0  0  0  0  0  0  0  0  0
   21.5298   12.8772   11.3510 C   0  0  0  0  0  0  0  0  0  0  0  0
  1  2  1  0
  2  3  1  0
  3  4  2  0
  3  5  1  0
  5  6  1  0
  6  7  2  0
  7  8  1  0
  8  9  1  0
  9 10  2  0
  9 11  1  0
 11 12  1  0
 12 13  2  0
 13 14  1  0
 14 15  1  0
 14 16  2  0
 16 17  1  0
 16 18  1  0
 18 19  2  0
 19 20  1  0
  8 21  2  0
 21 22  1  0
 22 23  1  0
 22 24  2  0
 24  2  1  0
 24  6  1  0
 19 12  1  0
M  END
>  <HIPPO ID>  (261) 
92663

>  <ref_url>  (261) 
None

>  <ref_pdb>  (261) 
c0270a

>  <inchikey>  (261) 
ISGLQXMQHBXJDN-UHFFFAOYSA-N

>  <original SMILES>  (261) 
Cn1c(=O)[nH]c2cc(C(=O)Nc3cc(F)c(O)cc3Cl)cc(Cl)c21

>  <generation_date>  (261) 
None

>  <tags>  (261) 
[]

>  <ref_mols>  (261) 
c0692a,c0894a

>  <alias>  (261) 
None

>  <original ID>  (261) 
ISGLQXMQHBXJDN-UHFFFAOYSA-N

>  <exports>  (261) 
['/opt/xchem-fragalysis-2/maxwin/CHIKV_HIPPO/hippo_prod/CHIKV_prod11c_recipes/Recipe_1GJWBFH_poses.sdf', '/opt/xchem-fragalysis-2/maxwin/CHIKV_HIPPO/hippo_prod/CHIKV_prod11c_recipes/Recipe_1GJXK8G_poses.sdf', '/opt/xchem-fragalysis-2/maxwin/CHIKV_HIPPO/hippo_prod/CHIKV_prod11c_recipes/Recipe_1GJXW46_poses.sdf']

>  <method>  (261) 
None

>  <submitter_email>  (261) 
None

>  <submitter_name>  (261) 
None

$$$$
KFVWAEIMISKGBT-UHFFFAOYSA-N
     RDKit          3D

 24 26  0  0  0  0  0  0  0  0999 V2000
   23.8300   13.6677   11.6005 C   0  0  0  0  0  0  0  0  0  0  0  0
   22.7745   12.9419   10.9764 N   0  0  0  0  0  0  0  0  0  0  0  0
   23.0003   12.0421    9.9259 C   0  0  0  0  0  0  0  0  0  0  0  0
   23.9724   11.9430    9.2123 O   0  0  0  0  0  0  0  0  0  0  0  0
   21.8514   11.2928    9.7884 N   0  0  0  0  0  0  0  0  0  0  0  0
   20.8808   11.8210   10.6025 C   0  0  0  0  0  0  0  0  0  0  0  0
   19.5671   11.4597   10.6181 C   0  0  0  0  0  0  0  0  0  0  0  0
   18.7295   12.2161   11.4286 C   0  0  0  0  0  0  0  0  0  0  0  0
   17.3384   11.7546   11.6178 C   0  0  0  0  0  0  0  0  0  0  0  0
   16.7757   12.0251   12.6705 O   0  0  0  0  0  0  0  0  0  0  0  0
   16.8265   10.9936   10.5902 N   0  0  0  0  0  0  0  0  0  0  0  0
   15.8694    9.9832   10.7124 C   0  0  0  0  0  0  0  0  0  0  0  0
   15.3235    9.4866    9.5272 C   0  0  0  0  0  0  0  0  0  0  0  0
   14.4437    8.4123    9.5546 C   0  0  0  0  0  0  0  0  0  0  0  0
   14.1752    7.7908   10.7727 C   0  0  0  0  0  0  0  0  0  0  0  0
   13.2123    6.6929   10.8173 N   0  0  0  0  0  4  0  0  0  0  0  0
   13.0085    6.0651    9.7732 O   0  0  0  0  0  0  0  0  0  0  0  0
   12.6405    6.4790   11.8964 O   0  0  0  0  0  1  0  0  0  0  0  0
   14.7230    8.2753   11.9670 C   0  0  0  0  0  0  0  0  0  0  0  0
   15.5414    9.4010   11.9362 C   0  0  0  0  0  0  0  0  0  0  0  0
   19.2419   13.2766   12.2133 C   0  0  0  0  0  0  0  0  0  0  0  0
   20.6094   13.5945   12.1915 C   0  0  0  0  0  0  0  0  0  0  0  0
   21.1623   14.9099   13.1412 Cl  0  0  0  0  0  0  0  0  0  0  0  0
   21.4252   12.8593   11.3569 C   0  0  0  0  0  0  0  0  0  0  0  0
  1  2  1  0
  2  3  1  0
  3  4  2  0
  3  5  1  0
  5  6  1  0
  6  7  2  0
  7  8  1  0
  8  9  1  0
  9 10  2  0
  9 11  1  0
 11 12  1  0
 12 13  2  0
 13 14  1  0
 14 15  2  0
 15 16  1  0
 16 17  2  0
 16 18  1  0
 15 19  1  0
 19 20  2  0
  8 21  2  0
 21 22  1  0
 22 23  1  0
 22 24  2  0
 24  2  1  0
 24  6  1  0
 20 12  1  0
M  CHG  2  16   1  18  -1
M  END
>  <HIPPO ID>  (262) 
92767

>  <ref_url>  (262) 
None

>  <ref_pdb>  (262) 
c0270a

>  <inchikey>  (262) 
KFVWAEIMISKGBT-UHFFFAOYSA-N

>  <original SMILES>  (262) 
Cn1c(=O)[nH]c2cc(C(=O)Nc3ccc([N+](=O)[O-])cc3)cc(Cl)c21

>  <generation_date>  (262) 
None

>  <tags>  (262) 
[]

>  <ref_mols>  (262) 
c0692a,c0894a

>  <alias>  (262) 
None

>  <original ID>  (262) 
KFVWAEIMISKGBT-UHFFFAOYSA-N

>  <exports>  (262) 
['/opt/xchem-fragalysis-2/maxwin/CHIKV_HIPPO/hippo_prod/CHIKV_prod11c_recipes/Recipe_1GJWBFH_poses.sdf', '/opt/xchem-fragalysis-2/maxwin/CHIKV_HIPPO/hippo_prod/CHIKV_prod11c_recipes/Recipe_1GJXK8G_poses.sdf', '/opt/xchem-fragalysis-2/maxwin/CHIKV_HIPPO/hippo_prod/CHIKV_prod11c_recipes/Recipe_1GJXW46_poses.sdf']

>  <method>  (262) 
None

>  <submitter_email>  (262) 
None

>  <submitter_name>  (262) 
None

$$$$
VUVYGJWKIWSSGV-UHFFFAOYSA-N
     RDKit          3D

 24 26  0  0  0  0  0  0  0  0999 V2000
   23.8785   13.6900   11.7344 C   0  0  0  0  0  0  0  0  0  0  0  0
   22.8559   12.9825   11.0379 N   0  0  0  0  0  0  0  0  0  0  0  0
   23.1383   12.1021    9.9833 C   0  0  0  0  0  0  0  0  0  0  0  0
   24.1678   12.0053    9.3493 O   0  0  0  0  0  0  0  0  0  0  0  0
   21.9846   11.3696    9.7630 N   0  0  0  0  0  0  0  0  0  0  0  0
   20.9780   11.8571   10.5704 C   0  0  0  0  0  0  0  0  0  0  0  0
   19.6612   11.4778   10.5667 C   0  0  0  0  0  0  0  0  0  0  0  0
   18.7961   12.2092   11.3781 C   0  0  0  0  0  0  0  0  0  0  0  0
   17.3852   11.7764   11.5464 C   0  0  0  0  0  0  0  0  0  0  0  0
   16.7563   12.1989   12.5078 O   0  0  0  0  0  0  0  0  0  0  0  0
   16.8992   10.9095   10.5957 N   0  0  0  0  0  0  0  0  0  0  0  0
   15.9054    9.9323   10.7948 C   0  0  0  0  0  0  0  0  0  0  0  0
   15.3379    9.3726    9.6535 C   0  0  0  0  0  0  0  0  0  0  0  0
   15.6452    9.8868    8.4651 F   0  0  0  0  0  0  0  0  0  0  0  0
   14.4690    8.2978    9.7042 C   0  0  0  0  0  0  0  0  0  0  0  0
   14.2108    7.7136   10.9299 C   0  0  0  0  0  0  0  0  0  0  0  0
   13.1817    6.3407   11.0012 Cl  0  0  0  0  0  0  0  0  0  0  0  0
   14.7379    8.2629   12.0979 C   0  0  0  0  0  0  0  0  0  0  0  0
   15.5497    9.3934   12.0274 C   0  0  0  0  0  0  0  0  0  0  0  0
   16.0592    9.8633   13.1722 F   0  0  0  0  0  0  0  0  0  0  0  0
   19.2899   13.2652   12.1829 C   0  0  0  0  0  0  0  0  0  0  0  0
   20.6535   13.5941   12.1946 C   0  0  0  0  0  0  0  0  0  0  0  0
   21.1733   14.9005   13.1758 Cl  0  0  0  0  0  0  0  0  0  0  0  0
   21.4936   12.8813   11.3647 C   0  0  0  0  0  0  0  0  0  0  0  0
  1  2  1  0
  2  3  1  0
  3  4  2  0
  3  5  1  0
  5  6  1  0
  6  7  2  0
  7  8  1  0
  8  9  1  0
  9 10  2  0
  9 11  1  0
 11 12  1  0
 12 13  2  0
 13 14  1  0
 13 15  1  0
 15 16  2  0
 16 17  1  0
 16 18  1  0
 18 19  2  0
 19 20  1  0
  8 21  2  0
 21 22  1  0
 22 23  1  0
 22 24  2  0
 24  2  1  0
 24  6  1  0
 19 12  1  0
M  END
>  <HIPPO ID>  (263) 
92824

>  <ref_url>  (263) 
None

>  <ref_pdb>  (263) 
c0270a

>  <inchikey>  (263) 
VUVYGJWKIWSSGV-UHFFFAOYSA-N

>  <original SMILES>  (263) 
Cn1c(=O)[nH]c2cc(C(=O)Nc3c(F)cc(Cl)cc3F)cc(Cl)c21

>  <generation_date>  (263) 
None

>  <tags>  (263) 
[]

>  <ref_mols>  (263) 
c0692a,c0894a

>  <alias>  (263) 
None

>  <original ID>  (263) 
VUVYGJWKIWSSGV-UHFFFAOYSA-N

>  <exports>  (263) 
['/opt/xchem-fragalysis-2/maxwin/CHIKV_HIPPO/hippo_prod/CHIKV_prod11c_recipes/Recipe_1GJWBFH_poses.sdf', '/opt/xchem-fragalysis-2/maxwin/CHIKV_HIPPO/hippo_prod/CHIKV_prod11c_recipes/Recipe_1GJXK8G_poses.sdf', '/opt/xchem-fragalysis-2/maxwin/CHIKV_HIPPO/hippo_prod/CHIKV_prod11c_recipes/Recipe_1GJXW46_poses.sdf']

>  <method>  (263) 
None

>  <submitter_email>  (263) 
None

>  <submitter_name>  (263) 
None

$$$$
VPLRZYQURNFOPZ-UHFFFAOYSA-N
     RDKit          3D

 24 26  0  0  0  0  0  0  0  0999 V2000
   15.8357   10.0220   13.4379 C   0  0  0  0  0  0  0  0  0  0  0  0
   15.5080    9.4779   12.0814 C   0  0  0  0  0  0  0  0  0  0  0  0
   14.7538    8.2924   12.0466 C   0  0  0  0  0  0  0  0  0  0  0  0
   14.2253    7.8104   10.8525 C   0  0  0  0  0  0  0  0  0  0  0  0
   13.2495    6.3862   10.8854 Cl  0  0  0  0  0  0  0  0  0  0  0  0
   14.3744    8.5489    9.6829 C   0  0  0  0  0  0  0  0  0  0  0  0
   13.6489    8.2429    8.5308 N   0  0  0  0  0  0  0  0  0  0  0  0
   15.2815    9.6032    9.6752 C   0  0  0  0  0  0  0  0  0  0  0  0
   15.8709   10.0649   10.8593 C   0  0  0  0  0  0  0  0  0  0  0  0
   16.8967   11.0088   10.6708 N   0  0  0  0  0  0  0  0  0  0  0  0
   17.3933   11.9213   11.5691 C   0  0  0  0  0  0  0  0  0  0  0  0
   16.7593   12.4520   12.4715 O   0  0  0  0  0  0  0  0  0  0  0  0
   18.8260   12.2830   11.4081 C   0  0  0  0  0  0  0  0  0  0  0  0
   19.3548   13.3290   12.2038 C   0  0  0  0  0  0  0  0  0  0  0  0
   20.7258   13.6220   12.2046 C   0  0  0  0  0  0  0  0  0  0  0  0
   21.2825   14.9209   13.1748 Cl  0  0  0  0  0  0  0  0  0  0  0  0
   21.5391   12.8867   11.3684 C   0  0  0  0  0  0  0  0  0  0  0  0
   20.9915   11.8684   10.5876 C   0  0  0  0  0  0  0  0  0  0  0  0
   19.6666   11.5185   10.6007 C   0  0  0  0  0  0  0  0  0  0  0  0
   21.9753   11.3598    9.7654 N   0  0  0  0  0  0  0  0  0  0  0  0
   23.1421   12.0817    9.9540 C   0  0  0  0  0  0  0  0  0  0  0  0
   24.1507   11.9808    9.2880 O   0  0  0  0  0  0  0  0  0  0  0  0
   22.8966   12.9632   11.0170 N   0  0  0  0  0  0  0  0  0  0  0  0
   23.9428   13.6638   11.6849 C   0  0  0  0  0  0  0  0  0  0  0  0
  1  2  1  0
  2  3  2  0
  3  4  1  0
  4  5  1  0
  4  6  2  0
  6  7  1  0
  6  8  1  0
  8  9  2  0
  9 10  1  0
 10 11  1  0
 11 12  2  0
 11 13  1  0
 13 14  2  0
 14 15  1  0
 15 16  1  0
 15 17  2  0
 17 18  1  0
 18 19  2  0
 18 20  1  0
 20 21  1  0
 21 22  2  0
 21 23  1  0
 23 24  1  0
  9  2  1  0
 19 13  1  0
 23 17  1  0
M  END
>  <HIPPO ID>  (264) 
93309

>  <ref_url>  (264) 
None

>  <ref_pdb>  (264) 
c0270a

>  <inchikey>  (264) 
VPLRZYQURNFOPZ-UHFFFAOYSA-N

>  <original SMILES>  (264) 
Cc1cc(Cl)c(N)cc1NC(=O)c1cc(Cl)c2c(c1)[nH]c(=O)n2C

>  <generation_date>  (264) 
None

>  <tags>  (264) 
[]

>  <ref_mols>  (264) 
c0692a,c0894a

>  <alias>  (264) 
None

>  <original ID>  (264) 
VPLRZYQURNFOPZ-UHFFFAOYSA-N

>  <exports>  (264) 
['/opt/xchem-fragalysis-2/maxwin/CHIKV_HIPPO/hippo_prod/CHIKV_prod11c_recipes/Recipe_1GJWBFH_poses.sdf', '/opt/xchem-fragalysis-2/maxwin/CHIKV_HIPPO/hippo_prod/CHIKV_prod11c_recipes/Recipe_1GJXK8G_poses.sdf', '/opt/xchem-fragalysis-2/maxwin/CHIKV_HIPPO/hippo_prod/CHIKV_prod11c_recipes/Recipe_1GJXW46_poses.sdf']

>  <method>  (264) 
None

>  <submitter_email>  (264) 
None

>  <submitter_name>  (264) 
None

$$$$
KRHNAGQEEAXIPR-UHFFFAOYSA-N
     RDKit          3D

 24 26  0  0  0  0  0  0  0  0999 V2000
   13.3609    6.4341   11.6001 C   0  0  0  0  0  0  0  0  0  0  0  0
   14.2274    7.6569   11.4970 C   0  0  0  0  0  0  0  0  0  0  0  0
   14.4877    8.1654   10.2323 C   0  0  0  0  0  0  0  0  0  0  0  0
   15.2362    9.3230   10.1171 C   0  0  0  0  0  0  0  0  0  0  0  0
   15.2388   10.1120    8.6335 Cl  0  0  0  0  0  0  0  0  0  0  0  0
   15.8520    9.9417   11.1981 C   0  0  0  0  0  0  0  0  0  0  0  0
   16.8068   10.9479   10.9245 N   0  0  0  0  0  0  0  0  0  0  0  0
   17.3826   11.7980   11.8336 C   0  0  0  0  0  0  0  0  0  0  0  0
   16.8904   12.1320   12.9045 O   0  0  0  0  0  0  0  0  0  0  0  0
   18.7551   12.2682   11.5102 C   0  0  0  0  0  0  0  0  0  0  0  0
   19.3048   13.3355   12.2608 C   0  0  0  0  0  0  0  0  0  0  0  0
   20.6701   13.6515   12.1856 C   0  0  0  0  0  0  0  0  0  0  0  0
   21.2528   14.9691   13.1149 Cl  0  0  0  0  0  0  0  0  0  0  0  0
   21.4568   12.9098   11.3290 C   0  0  0  0  0  0  0  0  0  0  0  0
   20.8845   11.8716   10.5932 C   0  0  0  0  0  0  0  0  0  0  0  0
   19.5621   11.5160   10.6579 C   0  0  0  0  0  0  0  0  0  0  0  0
   21.8443   11.3309    9.7645 N   0  0  0  0  0  0  0  0  0  0  0  0
   23.0103   12.0716    9.8749 C   0  0  0  0  0  0  0  0  0  0  0  0
   23.9877   11.9633    9.1647 O   0  0  0  0  0  0  0  0  0  0  0  0
   22.8000   12.9851   10.9212 N   0  0  0  0  0  0  0  0  0  0  0  0
   23.8817   13.6671   11.5514 C   0  0  0  0  0  0  0  0  0  0  0  0
   15.5484    9.4712   12.4646 C   0  0  0  0  0  0  0  0  0  0  0  0
   14.6780    8.3788   12.6236 C   0  0  0  0  0  0  0  0  0  0  0  0
   14.3870    7.9480   13.9195 N   0  0  0  0  0  0  0  0  0  0  0  0
  1  2  1  0
  2  3  2  0
  3  4  1  0
  4  5  1  0
  4  6  2  0
  6  7  1  0
  7  8  1  0
  8  9  2  0
  8 10  1  0
 10 11  2  0
 11 12  1  0
 12 13  1  0
 12 14  2  0
 14 15  1  0
 15 16  2  0
 15 17  1  0
 17 18  1  0
 18 19  2  0
 18 20  1  0
 20 21  1  0
  6 22  1  0
 22 23  2  0
 23 24  1  0
 23  2  1  0
 16 10  1  0
 20 14  1  0
M  END
>  <HIPPO ID>  (265) 
93388

>  <ref_url>  (265) 
None

>  <ref_pdb>  (265) 
c0270a

>  <inchikey>  (265) 
KRHNAGQEEAXIPR-UHFFFAOYSA-N

>  <original SMILES>  (265) 
Cc1cc(Cl)c(NC(=O)c2cc(Cl)c3c(c2)[nH]c(=O)n3C)cc1N

>  <generation_date>  (265) 
None

>  <tags>  (265) 
[]

>  <ref_mols>  (265) 
c0692a,c0894a

>  <alias>  (265) 
None

>  <original ID>  (265) 
KRHNAGQEEAXIPR-UHFFFAOYSA-N

>  <exports>  (265) 
['/opt/xchem-fragalysis-2/maxwin/CHIKV_HIPPO/hippo_prod/CHIKV_prod11c_recipes/Recipe_1GJWBFH_poses.sdf', '/opt/xchem-fragalysis-2/maxwin/CHIKV_HIPPO/hippo_prod/CHIKV_prod11c_recipes/Recipe_1GJXK8G_poses.sdf', '/opt/xchem-fragalysis-2/maxwin/CHIKV_HIPPO/hippo_prod/CHIKV_prod11c_recipes/Recipe_1GJXW46_poses.sdf']

>  <method>  (265) 
None

>  <submitter_email>  (265) 
None

>  <submitter_name>  (265) 
None

$$$$
NPXUXTPGHGXKGO-UHFFFAOYSA-N
     RDKit          3D

 25 27  0  0  0  0  0  0  0  0999 V2000
   24.1325   13.7225   11.6523 C   0  0  0  0  0  0  0  0  0  0  0  0
   23.0909   13.0534   10.9465 N   0  0  0  0  0  0  0  0  0  0  0  0
   23.3495   12.2172    9.8492 C   0  0  0  0  0  0  0  0  0  0  0  0
   24.3501   12.1693    9.1643 O   0  0  0  0  0  0  0  0  0  0  0  0
   22.2044   11.4678    9.6476 N   0  0  0  0  0  0  0  0  0  0  0  0
   21.2174   11.9145   10.5024 C   0  0  0  0  0  0  0  0  0  0  0  0
   19.9049   11.5248   10.5217 C   0  0  0  0  0  0  0  0  0  0  0  0
   19.0481   12.2579   11.3389 C   0  0  0  0  0  0  0  0  0  0  0  0
   17.6294   11.8608   11.4917 C   0  0  0  0  0  0  0  0  0  0  0  0
   17.0082   12.2979   12.4539 O   0  0  0  0  0  0  0  0  0  0  0  0
   17.1356   10.9738   10.5581 N   0  0  0  0  0  0  0  0  0  0  0  0
   16.1073   10.0548   10.7854 C   0  0  0  0  0  0  0  0  0  0  0  0
   15.6380    9.3199    9.6913 C   0  0  0  0  0  0  0  0  0  0  0  0
   14.7070    8.3017    9.8763 C   0  0  0  0  0  0  0  0  0  0  0  0
   14.2907    7.9832   11.1580 C   0  0  0  0  0  0  0  0  0  0  0  0
   13.3525    7.0382   11.3035 F   0  0  0  0  0  0  0  0  0  0  0  0
   14.7463    8.7361   12.2360 C   0  0  0  0  0  0  0  0  0  0  0  0
   14.2283    8.4959   13.5611 N   0  0  0  0  0  4  0  0  0  0  0  0
   14.3123    7.3500   14.0071 O   0  0  0  0  0  0  0  0  0  0  0  0
   13.7366    9.4587   14.1684 O   0  0  0  0  0  1  0  0  0  0  0  0
   15.6324    9.7881   12.0642 C   0  0  0  0  0  0  0  0  0  0  0  0
   19.5496   13.2971   12.1583 C   0  0  0  0  0  0  0  0  0  0  0  0
   20.9119   13.6205   12.1657 C   0  0  0  0  0  0  0  0  0  0  0  0
   21.4311   14.9165   13.1598 Cl  0  0  0  0  0  0  0  0  0  0  0  0
   21.7401   12.9269   11.3074 C   0  0  0  0  0  0  0  0  0  0  0  0
  1  2  1  0
  2  3  1  0
  3  4  2  0
  3  5  1  0
  5  6  1  0
  6  7  2  0
  7  8  1  0
  8  9  1  0
  9 10  2  0
  9 11  1  0
 11 12  1  0
 12 13  2  0
 13 14  1  0
 14 15  2  0
 15 16  1  0
 15 17  1  0
 17 18  1  0
 18 19  2  0
 18 20  1  0
 17 21  2  0
  8 22  2  0
 22 23  1  0
 23 24  1  0
 23 25  2  0
 25  2  1  0
 25  6  1  0
 21 12  1  0
M  CHG  2  18   1  20  -1
M  END
>  <HIPPO ID>  (266) 
93458

>  <ref_url>  (266) 
None

>  <ref_pdb>  (266) 
c0270a

>  <inchikey>  (266) 
NPXUXTPGHGXKGO-UHFFFAOYSA-N

>  <original SMILES>  (266) 
Cn1c(=O)[nH]c2cc(C(=O)Nc3ccc(F)c([N+](=O)[O-])c3)cc(Cl)c21

>  <generation_date>  (266) 
None

>  <tags>  (266) 
[]

>  <ref_mols>  (266) 
c0692a,c0894a

>  <alias>  (266) 
None

>  <original ID>  (266) 
NPXUXTPGHGXKGO-UHFFFAOYSA-N

>  <exports>  (266) 
['/opt/xchem-fragalysis-2/maxwin/CHIKV_HIPPO/hippo_prod/CHIKV_prod11c_recipes/Recipe_1GJWBFH_poses.sdf', '/opt/xchem-fragalysis-2/maxwin/CHIKV_HIPPO/hippo_prod/CHIKV_prod11c_recipes/Recipe_1GJXK8G_poses.sdf', '/opt/xchem-fragalysis-2/maxwin/CHIKV_HIPPO/hippo_prod/CHIKV_prod11c_recipes/Recipe_1GJXW46_poses.sdf']

>  <method>  (266) 
None

>  <submitter_email>  (266) 
None

>  <submitter_name>  (266) 
None

$$$$
FPSWYBBNUSNBNX-UHFFFAOYSA-N
     RDKit          3D

 25 27  0  0  0  0  0  0  0  0999 V2000
   23.9840   13.6888   11.7318 C   0  0  0  0  0  0  0  0  0  0  0  0
   22.9595   12.9771   11.0429 N   0  0  0  0  0  0  0  0  0  0  0  0
   23.2272   12.1294    9.9582 C   0  0  0  0  0  0  0  0  0  0  0  0
   24.2392   12.0656    9.2923 O   0  0  0  0  0  0  0  0  0  0  0  0
   22.0746   11.3939    9.7405 N   0  0  0  0  0  0  0  0  0  0  0  0
   21.0765   11.8661   10.5686 C   0  0  0  0  0  0  0  0  0  0  0  0
   19.7550   11.5063   10.5528 C   0  0  0  0  0  0  0  0  0  0  0  0
   18.8881   12.2689   11.3334 C   0  0  0  0  0  0  0  0  0  0  0  0
   17.4366   11.9599   11.3900 C   0  0  0  0  0  0  0  0  0  0  0  0
   16.7142   12.6051   12.1371 O   0  0  0  0  0  0  0  0  0  0  0  0
   16.9867   10.9658   10.5531 N   0  0  0  0  0  0  0  0  0  0  0  0
   15.9444   10.0511   10.7921 C   0  0  0  0  0  0  0  0  0  0  0  0
   15.5508    9.3096    9.6694 C   0  0  0  0  0  0  0  0  0  0  0  0
   14.6791    8.2289    9.7875 C   0  0  0  0  0  0  0  0  0  0  0  0
   14.2772    7.7949   11.0370 C   0  0  0  0  0  0  0  0  0  0  0  0
   14.6122    8.5540   12.1474 C   0  0  0  0  0  0  0  0  0  0  0  0
   14.1194    8.1878   13.3393 F   0  0  0  0  0  0  0  0  0  0  0  0
   15.3698    9.7118   12.0177 C   0  0  0  0  0  0  0  0  0  0  0  0
   15.5383   10.4505   13.2330 N   0  0  0  0  0  4  0  0  0  0  0  0
   14.5430   11.0281   13.6896 O   0  0  0  0  0  0  0  0  0  0  0  0
   16.6431   10.3733   13.7806 O   0  0  0  0  0  1  0  0  0  0  0  0
   19.3924   13.3017   12.1607 C   0  0  0  0  0  0  0  0  0  0  0  0
   20.7628   13.5943   12.2052 C   0  0  0  0  0  0  0  0  0  0  0  0
   21.2899   14.8875   13.1996 Cl  0  0  0  0  0  0  0  0  0  0  0  0
   21.5990   12.8766   11.3752 C   0  0  0  0  0  0  0  0  0  0  0  0
  1  2  1  0
  2  3  1  0
  3  4  2  0
  3  5  1  0
  5  6  1  0
  6  7  2  0
  7  8  1  0
  8  9  1  0
  9 10  2  0
  9 11  1  0
 11 12  1  0
 12 13  2  0
 13 14  1  0
 14 15  2  0
 15 16  1  0
 16 17  1  0
 16 18  2  0
 18 19  1  0
 19 20  2  0
 19 21  1  0
  8 22  2  0
 22 23  1  0
 23 24  1  0
 23 25  2  0
 25  2  1  0
 25  6  1  0
 18 12  1  0
M  CHG  2  19   1  21  -1
M  END
>  <HIPPO ID>  (267) 
93461

>  <ref_url>  (267) 
None

>  <ref_pdb>  (267) 
c0270a

>  <inchikey>  (267) 
FPSWYBBNUSNBNX-UHFFFAOYSA-N

>  <original SMILES>  (267) 
Cn1c(=O)[nH]c2cc(C(=O)Nc3cccc(F)c3[N+](=O)[O-])cc(Cl)c21

>  <generation_date>  (267) 
None

>  <tags>  (267) 
[]

>  <ref_mols>  (267) 
c0692a,c0894a

>  <alias>  (267) 
None

>  <original ID>  (267) 
FPSWYBBNUSNBNX-UHFFFAOYSA-N

>  <exports>  (267) 
['/opt/xchem-fragalysis-2/maxwin/CHIKV_HIPPO/hippo_prod/CHIKV_prod11c_recipes/Recipe_1GJWBFH_poses.sdf', '/opt/xchem-fragalysis-2/maxwin/CHIKV_HIPPO/hippo_prod/CHIKV_prod11c_recipes/Recipe_1GJXK8G_poses.sdf', '/opt/xchem-fragalysis-2/maxwin/CHIKV_HIPPO/hippo_prod/CHIKV_prod11c_recipes/Recipe_1GJXW46_poses.sdf']

>  <method>  (267) 
None

>  <submitter_email>  (267) 
None

>  <submitter_name>  (267) 
None

$$$$
JBNUHECBSRONFO-UHFFFAOYSA-N
     RDKit          3D

 26 28  0  0  0  0  0  0  0  0999 V2000
   23.8187   13.6992   11.1751 C   0  0  0  0  0  0  0  0  0  0  0  0
   22.7904   12.7482   10.9433 N   0  0  0  0  0  0  0  0  0  0  0  0
   22.9175   11.8378    9.8785 C   0  0  0  0  0  0  0  0  0  0  0  0
   23.7988   11.7827    9.0481 O   0  0  0  0  0  0  0  0  0  0  0  0
   21.7564   11.0914    9.8570 N   0  0  0  0  0  0  0  0  0  0  0  0
   20.8388   11.7068   10.6718 C   0  0  0  0  0  0  0  0  0  0  0  0
   19.5055   11.4315   10.6852 C   0  0  0  0  0  0  0  0  0  0  0  0
   18.6960   12.3020   11.4037 C   0  0  0  0  0  0  0  0  0  0  0  0
   17.2391   12.0268   11.4580 C   0  0  0  0  0  0  0  0  0  0  0  0
   16.5192   12.6552   12.2213 O   0  0  0  0  0  0  0  0  0  0  0  0
   16.7977   11.0921   10.5466 N   0  0  0  0  0  0  0  0  0  0  0  0
   15.7971   10.1268   10.7007 C   0  0  0  0  0  0  0  0  0  0  0  0
   15.2848    9.6291    9.4963 C   0  0  0  0  0  0  0  0  0  0  0  0
   14.3826    8.5825    9.4986 C   0  0  0  0  0  0  0  0  0  0  0  0
   13.7191    8.2884    8.3780 F   0  0  0  0  0  0  0  0  0  0  0  0
   14.1100    7.9126   10.6740 C   0  0  0  0  0  0  0  0  0  0  0  0
   13.2184    6.9138   10.6869 F   0  0  0  0  0  0  0  0  0  0  0  0
   14.6084    8.3883   11.8827 C   0  0  0  0  0  0  0  0  0  0  0  0
   15.3648    9.5664   11.9091 C   0  0  0  0  0  0  0  0  0  0  0  0
   15.6718   10.1293   13.2324 C   0  0  0  0  0  0  0  0  0  0  0  0
   16.7608   10.4381   13.6647 O   0  0  0  0  0  0  0  0  0  0  0  0
   14.5510   10.2785   13.9616 O   0  0  0  0  0  0  0  0  0  0  0  0
   19.2643   13.3792   12.1225 C   0  0  0  0  0  0  0  0  0  0  0  0
   20.6532   13.6161   12.0963 C   0  0  0  0  0  0  0  0  0  0  0  0
   21.2638   14.9870   12.9265 Cl  0  0  0  0  0  0  0  0  0  0  0  0
   21.4407   12.7696   11.3410 C   0  0  0  0  0  0  0  0  0  0  0  0
  1  2  1  0
  2  3  1  0
  3  4  2  0
  3  5  1  0
  5  6  1  0
  6  7  2  0
  7  8  1  0
  8  9  1  0
  9 10  2  0
  9 11  1  0
 11 12  1  0
 12 13  2  0
 13 14  1  0
 14 15  1  0
 14 16  2  0
 16 17  1  0
 16 18  1  0
 18 19  2  0
 19 20  1  0
 20 21  2  0
 20 22  1  0
  8 23  2  0
 23 24  1  0
 24 25  1  0
 24 26  2  0
 26  2  1  0
 26  6  1  0
 19 12  1  0
M  END
>  <HIPPO ID>  (268) 
93785

>  <ref_url>  (268) 
None

>  <ref_pdb>  (268) 
c0270a

>  <inchikey>  (268) 
JBNUHECBSRONFO-UHFFFAOYSA-N

>  <original SMILES>  (268) 
Cn1c(=O)[nH]c2cc(C(=O)Nc3cc(F)c(F)cc3C(=O)O)cc(Cl)c21

>  <generation_date>  (268) 
None

>  <tags>  (268) 
[]

>  <ref_mols>  (268) 
c0692a,c0894a

>  <alias>  (268) 
None

>  <original ID>  (268) 
JBNUHECBSRONFO-UHFFFAOYSA-N

>  <exports>  (268) 
['/opt/xchem-fragalysis-2/maxwin/CHIKV_HIPPO/hippo_prod/CHIKV_prod11c_recipes/Recipe_1GJWBFH_poses.sdf', '/opt/xchem-fragalysis-2/maxwin/CHIKV_HIPPO/hippo_prod/CHIKV_prod11c_recipes/Recipe_1GJXK8G_poses.sdf', '/opt/xchem-fragalysis-2/maxwin/CHIKV_HIPPO/hippo_prod/CHIKV_prod11c_recipes/Recipe_1GJXW46_poses.sdf']

>  <method>  (268) 
None

>  <submitter_email>  (268) 
None

>  <submitter_name>  (268) 
None

$$$$
OCVOCNVCDVNCJL-UHFFFAOYSA-N
     RDKit          3D

 19 20  0  0  0  0  0  0  0  0999 V2000
   21.8856   11.2819   10.5264 C   0  0  0  0  0  0  0  0  0  0  0  0
   20.4659   11.4559   10.6320 O   0  0  0  0  0  0  0  0  0  0  0  0
   20.0465   12.6533   11.1397 C   0  0  0  0  0  0  0  0  0  0  0  0
   20.8711   13.7873   11.1794 C   0  0  0  0  0  0  0  0  0  0  0  0
   20.4244   14.9828   11.7516 C   0  0  0  0  0  0  0  0  0  0  0  0
   19.1333   15.0928   12.2436 C   0  0  0  0  0  0  0  0  0  0  0  0
   18.6753   16.2475   12.8550 N   0  0  0  0  0  0  0  0  0  0  0  0
   18.3390   13.9650   12.2624 C   0  0  0  0  0  0  0  0  0  0  0  0
   18.7549   12.7624   11.6729 C   0  0  0  0  0  0  0  0  0  0  0  0
   17.7341   11.7109   11.8396 C   0  0  0  0  0  0  0  0  0  0  0  0
   17.1786   11.6890   12.9393 O   0  0  0  0  0  0  0  0  0  0  0  0
   17.3755   10.9244   10.7674 N   0  0  0  0  0  0  0  0  0  0  0  0
   16.3263    9.9703   10.7955 C   0  0  0  0  0  0  0  0  0  0  0  0
   15.8025    9.5349    9.5805 C   0  0  0  0  0  0  0  0  0  0  0  0
   14.8058    8.5642    9.5348 C   0  0  0  0  0  0  0  0  0  0  0  0
   14.3920    7.9531   10.7037 C   0  0  0  0  0  0  0  0  0  0  0  0
   13.4888    6.9348   10.6729 O   0  0  0  0  0  0  0  0  0  0  0  0
   14.8740    8.3825   11.9274 C   0  0  0  0  0  0  0  0  0  0  0  0
   15.8091    9.4170   11.9730 C   0  0  0  0  0  0  0  0  0  0  0  0
  1  2  1  0
  2  3  1  0
  3  4  2  0
  4  5  1  0
  5  6  2  0
  6  7  1  0
  6  8  1  0
  8  9  2  0
  9 10  1  0
 10 11  2  0
 10 12  1  0
 12 13  1  0
 13 14  2  0
 14 15  1  0
 15 16  2  0
 16 17  1  0
 16 18  1  0
 18 19  2  0
  9  3  1  0
 19 13  1  0
M  END
>  <HIPPO ID>  (269) 
93813

>  <ref_url>  (269) 
None

>  <ref_pdb>  (269) 
c0270a

>  <inchikey>  (269) 
OCVOCNVCDVNCJL-UHFFFAOYSA-N

>  <original SMILES>  (269) 
COc1ccc(N)cc1C(=O)Nc1ccc(O)cc1

>  <generation_date>  (269) 
None

>  <tags>  (269) 
[]

>  <ref_mols>  (269) 
c0935a,c1118a

>  <alias>  (269) 
None

>  <original ID>  (269) 
OCVOCNVCDVNCJL-UHFFFAOYSA-N

>  <exports>  (269) 
['/opt/xchem-fragalysis-2/maxwin/CHIKV_HIPPO/hippo_prod/CHIKV_prod11_recipes/Recipe_1GERJCJ_poses.sdf', '/opt/xchem-fragalysis-2/maxwin/CHIKV_HIPPO/hippo_prod/CHIKV_prod11c_recipes/Recipe_1GJXK8G_poses.sdf', '/opt/xchem-fragalysis-2/maxwin/CHIKV_HIPPO/hippo_prod/CHIKV_prod11c_recipes/Recipe_1GJXW46_poses.sdf']

>  <method>  (269) 
None

>  <submitter_email>  (269) 
None

>  <submitter_name>  (269) 
None

$$$$
YAPQPMAZFUMYMD-UHFFFAOYSA-N
     RDKit          3D

 20 21  0  0  0  0  0  0  0  0999 V2000
   22.0091   11.2738   10.9169 C   0  0  0  0  0  0  0  0  0  0  0  0
   20.6679   11.4273   11.3704 O   0  0  0  0  0  0  0  0  0  0  0  0
   20.1950   12.6726   11.6741 C   0  0  0  0  0  0  0  0  0  0  0  0
   21.0506   13.7779   11.7342 C   0  0  0  0  0  0  0  0  0  0  0  0
   20.5594   15.0308   12.0873 C   0  0  0  0  0  0  0  0  0  0  0  0
   19.2093   15.2107   12.3391 C   0  0  0  0  0  0  0  0  0  0  0  0
   18.7054   16.4258   12.7543 N   0  0  0  0  0  0  0  0  0  0  0  0
   18.3729   14.1164   12.3611 C   0  0  0  0  0  0  0  0  0  0  0  0
   18.8230   12.8496   11.9965 C   0  0  0  0  0  0  0  0  0  0  0  0
   17.6860   11.8732   12.1248 C   0  0  0  0  0  0  0  0  0  0  0  0
   17.0439   11.9535   13.1749 O   0  0  0  0  0  0  0  0  0  0  0  0
   17.3099   11.0555   11.0581 N   0  0  0  0  0  0  0  0  0  0  0  0
   18.3456   10.6806   10.1477 C   0  0  0  0  0  0  0  0  0  0  0  0
   16.2027   10.1410   11.0826 C   0  0  0  0  0  0  0  0  0  0  0  0
   15.6506    9.7042    9.8627 C   0  0  0  0  0  0  0  0  0  0  0  0
   14.7616    8.6367    9.8013 C   0  0  0  0  0  0  0  0  0  0  0  0
   14.4167    7.9897   10.9726 C   0  0  0  0  0  0  0  0  0  0  0  0
   13.5827    6.9123   10.9498 O   0  0  0  0  0  0  0  0  0  0  0  0
   14.8734    8.4544   12.2006 C   0  0  0  0  0  0  0  0  0  0  0  0
   15.7377    9.5518   12.2593 C   0  0  0  0  0  0  0  0  0  0  0  0
  1  2  1  0
  2  3  1  0
  3  4  2  0
  4  5  1  0
  5  6  2  0
  6  7  1  0
  6  8  1  0
  8  9  2  0
  9 10  1  0
 10 11  2  0
 10 12  1  0
 12 13  1  0
 12 14  1  0
 14 15  2  0
 15 16  1  0
 16 17  2  0
 17 18  1  0
 17 19  1  0
 19 20  2  0
  9  3  1  0
 20 14  1  0
M  END
>  <HIPPO ID>  (270) 
93875

>  <ref_url>  (270) 
None

>  <ref_pdb>  (270) 
c0270a

>  <inchikey>  (270) 
YAPQPMAZFUMYMD-UHFFFAOYSA-N

>  <original SMILES>  (270) 
COc1ccc(N)cc1C(=O)N(C)c1ccc(O)cc1

>  <generation_date>  (270) 
None

>  <tags>  (270) 
[]

>  <ref_mols>  (270) 
c0935a,c1118a

>  <alias>  (270) 
None

>  <original ID>  (270) 
YAPQPMAZFUMYMD-UHFFFAOYSA-N

>  <exports>  (270) 
['/opt/xchem-fragalysis-2/maxwin/CHIKV_HIPPO/hippo_prod/CHIKV_prod11c_recipes/Recipe_1GJXW46_poses.sdf']

>  <method>  (270) 
None

>  <submitter_email>  (270) 
None

>  <submitter_name>  (270) 
None

$$$$
YHKDWKTYJVUXJA-UHFFFAOYSA-N
     RDKit          3D

 20 21  0  0  0  0  0  0  0  0999 V2000
   21.8649   11.3945   10.2158 C   0  0  0  0  0  0  0  0  0  0  0  0
   20.4797   11.6432   10.4883 O   0  0  0  0  0  0  0  0  0  0  0  0
   20.2209   12.6649   11.3578 C   0  0  0  0  0  0  0  0  0  0  0  0
   21.2396   13.4831   11.8772 C   0  0  0  0  0  0  0  0  0  0  0  0
   20.9694   14.4609   12.8333 C   0  0  0  0  0  0  0  0  0  0  0  0
   19.6819   14.6393   13.3003 C   0  0  0  0  0  0  0  0  0  0  0  0
   19.3788   15.6077   14.2423 N   0  0  0  0  0  0  0  0  0  0  0  0
   18.6593   13.9395   12.6937 C   0  0  0  0  0  0  0  0  0  0  0  0
   18.9012   12.9162   11.7587 C   0  0  0  0  0  0  0  0  0  0  0  0
   17.6466   12.1915   11.4317 C   0  0  0  0  0  0  0  0  0  0  0  0
   16.5803   12.7467   11.7090 O   0  0  0  0  0  0  0  0  0  0  0  0
   17.6658   10.9388   10.8618 N   0  0  0  0  0  0  0  0  0  0  0  0
   16.5154   10.0992   10.9411 C   0  0  0  0  0  0  0  0  0  0  0  0
   16.1242    9.4040    9.7964 C   0  0  0  0  0  0  0  0  0  0  0  0
   15.1018    8.4559    9.8508 C   0  0  0  0  0  0  0  0  0  0  0  0
   14.5390    8.1147   11.0634 C   0  0  0  0  0  0  0  0  0  0  0  0
   13.6294    7.1007   11.0878 O   0  0  0  0  0  0  0  0  0  0  0  0
   14.8843    8.8065   12.2119 C   0  0  0  0  0  0  0  0  0  0  0  0
   15.8249    9.8377   12.1467 C   0  0  0  0  0  0  0  0  0  0  0  0
   16.1550   10.6075   13.6624 Cl  0  0  0  0  0  0  0  0  0  0  0  0
  1  2  1  0
  2  3  1  0
  3  4  2  0
  4  5  1  0
  5  6  2  0
  6  7  1  0
  6  8  1  0
  8  9  2  0
  9 10  1  0
 10 11  2  0
 10 12  1  0
 12 13  1  0
 13 14  2  0
 14 15  1  0
 15 16  2  0
 16 17  1  0
 16 18  1  0
 18 19  2  0
 19 20  1  0
  9  3  1  0
 19 13  1  0
M  END
>  <HIPPO ID>  (271) 
93876

>  <ref_url>  (271) 
None

>  <ref_pdb>  (271) 
c0270a

>  <inchikey>  (271) 
YHKDWKTYJVUXJA-UHFFFAOYSA-N

>  <original SMILES>  (271) 
COc1ccc(N)cc1C(=O)Nc1ccc(O)cc1Cl

>  <generation_date>  (271) 
None

>  <tags>  (271) 
[]

>  <ref_mols>  (271) 
c0935a,c1118a

>  <alias>  (271) 
None

>  <original ID>  (271) 
YHKDWKTYJVUXJA-UHFFFAOYSA-N

>  <exports>  (271) 
['/opt/xchem-fragalysis-2/maxwin/CHIKV_HIPPO/hippo_prod/CHIKV_prod11c_recipes/Recipe_1GJWBFH_poses.sdf', '/opt/xchem-fragalysis-2/maxwin/CHIKV_HIPPO/hippo_prod/CHIKV_prod11c_recipes/Recipe_1GJXK8G_poses.sdf', '/opt/xchem-fragalysis-2/maxwin/CHIKV_HIPPO/hippo_prod/CHIKV_prod11c_recipes/Recipe_1GJXW46_poses.sdf']

>  <method>  (271) 
None

>  <submitter_email>  (271) 
None

>  <submitter_name>  (271) 
None

$$$$
RFCIPTSAYAETTH-UHFFFAOYSA-N
     RDKit          3D

 21 22  0  0  0  0  0  0  0  0999 V2000
   21.8129   11.1946   10.3184 C   0  0  0  0  0  0  0  0  0  0  0  0
   20.4708   11.6886   10.4125 O   0  0  0  0  0  0  0  0  0  0  0  0
   20.3226   12.7895   11.2059 C   0  0  0  0  0  0  0  0  0  0  0  0
   21.4028   13.6414   11.4880 C   0  0  0  0  0  0  0  0  0  0  0  0
   21.3032   14.6092   12.4826 C   0  0  0  0  0  0  0  0  0  0  0  0
   20.0989   14.8128   13.1306 C   0  0  0  0  0  0  0  0  0  0  0  0
   20.0392   15.4636   14.3678 N   0  0  0  0  0  0  0  0  0  0  0  0
   18.9976   14.0758   12.7512 C   0  0  0  0  0  0  0  0  0  0  0  0
   19.0832   13.0484   11.8029 C   0  0  0  0  0  0  0  0  0  0  0  0
   17.8250   12.2706   11.7305 C   0  0  0  0  0  0  0  0  0  0  0  0
   16.8684   12.6662   12.4020 O   0  0  0  0  0  0  0  0  0  0  0  0
   17.7242   11.1377   10.9570 N   0  0  0  0  0  0  0  0  0  0  0  0
   16.6435   10.2511   11.1478 C   0  0  0  0  0  0  0  0  0  0  0  0
   16.0842    9.6195   10.0594 C   0  0  0  0  0  0  0  0  0  0  0  0
   15.0191    8.7552   10.2758 C   0  0  0  0  0  0  0  0  0  0  0  0
   13.6858    8.5587    8.7637 I   0  0  0  0  0  0  0  0  0  0  0  0
   14.6689    8.3155   11.5471 C   0  0  0  0  0  0  0  0  0  0  0  0
   13.7722    7.2879   11.6856 O   0  0  0  0  0  0  0  0  0  0  0  0
   15.1847    8.9917   12.6386 C   0  0  0  0  0  0  0  0  0  0  0  0
   14.5010    8.6325   14.5720 I   0  0  0  0  0  0  0  0  0  0  0  0
   16.1341    9.9875   12.4343 C   0  0  0  0  0  0  0  0  0  0  0  0
  1  2  1  0
  2  3  1  0
  3  4  2  0
  4  5  1  0
  5  6  2  0
  6  7  1  0
  6  8  1  0
  8  9  2  0
  9 10  1  0
 10 11  2  0
 10 12  1  0
 12 13  1  0
 13 14  2  0
 14 15  1  0
 15 16  1  0
 15 17  2  0
 17 18  1  0
 17 19  1  0
 19 20  1  0
 19 21  2  0
  9  3  1  0
 21 13  1  0
M  END
>  <HIPPO ID>  (272) 
93975

>  <ref_url>  (272) 
None

>  <ref_pdb>  (272) 
c0270a

>  <inchikey>  (272) 
RFCIPTSAYAETTH-UHFFFAOYSA-N

>  <original SMILES>  (272) 
COc1ccc(N)cc1C(=O)Nc1cc(I)c(O)c(I)c1

>  <generation_date>  (272) 
None

>  <tags>  (272) 
[]

>  <ref_mols>  (272) 
c0935a,c1118a

>  <alias>  (272) 
None

>  <original ID>  (272) 
RFCIPTSAYAETTH-UHFFFAOYSA-N

>  <exports>  (272) 
['/opt/xchem-fragalysis-2/maxwin/CHIKV_HIPPO/hippo_prod/CHIKV_prod11_recipes/Recipe_1GERJCJ_poses.sdf', '/opt/xchem-fragalysis-2/maxwin/CHIKV_HIPPO/hippo_prod/CHIKV_prod11c_recipes/Recipe_1GJWBFH_poses.sdf', '/opt/xchem-fragalysis-2/maxwin/CHIKV_HIPPO/hippo_prod/CHIKV_prod11c_recipes/Recipe_1GJXK8G_poses.sdf', '/opt/xchem-fragalysis-2/maxwin/CHIKV_HIPPO/hippo_prod/CHIKV_prod11c_recipes/Recipe_1GJXW46_poses.sdf']

>  <method>  (272) 
None

>  <submitter_email>  (272) 
None

>  <submitter_name>  (272) 
None

$$$$
KCFJSDZWSWQWBN-UHFFFAOYSA-N
     RDKit          3D

 21 22  0  0  0  0  0  0  0  0999 V2000
   21.3871   10.8854   10.1539 C   0  0  0  0  0  0  0  0  0  0  0  0
   20.1017   11.4634   10.3283 O   0  0  0  0  0  0  0  0  0  0  0  0
   20.0186   12.5017   11.2014 C   0  0  0  0  0  0  0  0  0  0  0  0
   21.1289   13.2644   11.5805 C   0  0  0  0  0  0  0  0  0  0  0  0
   21.0021   14.2624   12.5430 C   0  0  0  0  0  0  0  0  0  0  0  0
   19.7735   14.5115   13.1339 C   0  0  0  0  0  0  0  0  0  0  0  0
   19.6230   15.5066   14.0847 N   0  0  0  0  0  0  0  0  0  0  0  0
   18.6532   13.8654   12.6499 C   0  0  0  0  0  0  0  0  0  0  0  0
   18.7598   12.8221   11.7242 C   0  0  0  0  0  0  0  0  0  0  0  0
   17.4771   12.1028   11.5164 C   0  0  0  0  0  0  0  0  0  0  0  0
   16.4486   12.6130   11.9599 O   0  0  0  0  0  0  0  0  0  0  0  0
   17.4576   10.9125   10.8242 N   0  0  0  0  0  0  0  0  0  0  0  0
   16.3267   10.0558   10.8503 C   0  0  0  0  0  0  0  0  0  0  0  0
   15.8522    9.5758    9.6324 C   0  0  0  0  0  0  0  0  0  0  0  0
   14.8231    8.6538    9.6078 C   0  0  0  0  0  0  0  0  0  0  0  0
   14.2081    8.3670    8.4597 F   0  0  0  0  0  0  0  0  0  0  0  0
   14.3861    8.0478   10.7681 C   0  0  0  0  0  0  0  0  0  0  0  0
   13.4918    7.0177   10.7106 O   0  0  0  0  0  0  0  0  0  0  0  0
   14.8155    8.5253   11.9933 C   0  0  0  0  0  0  0  0  0  0  0  0
   15.7187    9.5929   12.0391 C   0  0  0  0  0  0  0  0  0  0  0  0
   16.0876   10.1890   13.6184 Cl  0  0  0  0  0  0  0  0  0  0  0  0
  1  2  1  0
  2  3  1  0
  3  4  2  0
  4  5  1  0
  5  6  2  0
  6  7  1  0
  6  8  1  0
  8  9  2  0
  9 10  1  0
 10 11  2  0
 10 12  1  0
 12 13  1  0
 13 14  2  0
 14 15  1  0
 15 16  1  0
 15 17  2  0
 17 18  1  0
 17 19  1  0
 19 20  2  0
 20 21  1  0
  9  3  1  0
 20 13  1  0
M  END
>  <HIPPO ID>  (273) 
94008

>  <ref_url>  (273) 
None

>  <ref_pdb>  (273) 
c0270a

>  <inchikey>  (273) 
KCFJSDZWSWQWBN-UHFFFAOYSA-N

>  <original SMILES>  (273) 
COc1ccc(N)cc1C(=O)Nc1cc(F)c(O)cc1Cl

>  <generation_date>  (273) 
None

>  <tags>  (273) 
[]

>  <ref_mols>  (273) 
c0935a,c1118a

>  <alias>  (273) 
None

>  <original ID>  (273) 
KCFJSDZWSWQWBN-UHFFFAOYSA-N

>  <exports>  (273) 
['/opt/xchem-fragalysis-2/maxwin/CHIKV_HIPPO/hippo_prod/CHIKV_prod11c_recipes/Recipe_1GJWBFH_poses.sdf', '/opt/xchem-fragalysis-2/maxwin/CHIKV_HIPPO/hippo_prod/CHIKV_prod11c_recipes/Recipe_1GJXK8G_poses.sdf', '/opt/xchem-fragalysis-2/maxwin/CHIKV_HIPPO/hippo_prod/CHIKV_prod11c_recipes/Recipe_1GJXW46_poses.sdf']

>  <method>  (273) 
None

>  <submitter_email>  (273) 
None

>  <submitter_name>  (273) 
None

$$$$
OQZRBJWDOCUJPT-UHFFFAOYSA-N
     RDKit          3D

 22 23  0  0  0  0  0  0  0  0999 V2000
   21.6117   10.9899   10.4822 C   0  0  0  0  0  0  0  0  0  0  0  0
   20.2674   11.4659   10.5251 O   0  0  0  0  0  0  0  0  0  0  0  0
   20.0686   12.6258   11.2189 C   0  0  0  0  0  0  0  0  0  0  0  0
   21.0976   13.5404   11.4852 C   0  0  0  0  0  0  0  0  0  0  0  0
   20.8486   14.7103   12.2110 C   0  0  0  0  0  0  0  0  0  0  0  0
   19.5851   14.9760   12.7123 C   0  0  0  0  0  0  0  0  0  0  0  0
   19.2762   16.2060   13.2905 N   0  0  0  0  0  0  0  0  0  0  0  0
   18.5650   14.0986   12.4204 C   0  0  0  0  0  0  0  0  0  0  0  0
   18.7773   12.9364   11.6612 C   0  0  0  0  0  0  0  0  0  0  0  0
   17.5221   12.1837   11.4557 C   0  0  0  0  0  0  0  0  0  0  0  0
   16.4626   12.7141   11.7990 O   0  0  0  0  0  0  0  0  0  0  0  0
   17.5149   10.9493   10.8590 N   0  0  0  0  0  0  0  0  0  0  0  0
   16.3964   10.0839   10.9692 C   0  0  0  0  0  0  0  0  0  0  0  0
   16.0796    9.3164    9.8479 C   0  0  0  0  0  0  0  0  0  0  0  0
   15.0914    8.3322    9.9109 C   0  0  0  0  0  0  0  0  0  0  0  0
   14.4989    8.0133   11.1151 C   0  0  0  0  0  0  0  0  0  0  0  0
   13.6116    6.9822   11.1443 O   0  0  0  0  0  0  0  0  0  0  0  0
   14.7726    8.7656   12.2403 C   0  0  0  0  0  0  0  0  0  0  0  0
   15.6415    9.8607   12.1392 C   0  0  0  0  0  0  0  0  0  0  0  0
   15.7245   10.6716   13.3448 N   0  0  0  0  0  4  0  0  0  0  0  0
   16.8392   10.8859   13.8323 O   0  0  0  0  0  0  0  0  0  0  0  0
   14.6519   10.9987   13.8758 O   0  0  0  0  0  1  0  0  0  0  0  0
  1  2  1  0
  2  3  1  0
  3  4  2  0
  4  5  1  0
  5  6  2  0
  6  7  1  0
  6  8  1  0
  8  9  2  0
  9 10  1  0
 10 11  2  0
 10 12  1  0
 12 13  1  0
 13 14  2  0
 14 15  1  0
 15 16  2  0
 16 17  1  0
 16 18  1  0
 18 19  2  0
 19 20  1  0
 20 21  2  0
 20 22  1  0
  9  3  1  0
 19 13  1  0
M  CHG  2  20   1  22  -1
M  END
>  <HIPPO ID>  (274) 
94765

>  <ref_url>  (274) 
None

>  <ref_pdb>  (274) 
c0270a

>  <inchikey>  (274) 
OQZRBJWDOCUJPT-UHFFFAOYSA-N

>  <original SMILES>  (274) 
COc1ccc(N)cc1C(=O)Nc1ccc(O)cc1[N+](=O)[O-]

>  <generation_date>  (274) 
None

>  <tags>  (274) 
[]

>  <ref_mols>  (274) 
c0935a,c1118a

>  <alias>  (274) 
None

>  <original ID>  (274) 
OQZRBJWDOCUJPT-UHFFFAOYSA-N

>  <exports>  (274) 
['/opt/xchem-fragalysis-2/maxwin/CHIKV_HIPPO/hippo_prod/CHIKV_prod11c_recipes/Recipe_1GJWBFH_poses.sdf', '/opt/xchem-fragalysis-2/maxwin/CHIKV_HIPPO/hippo_prod/CHIKV_prod11c_recipes/Recipe_1GJXK8G_poses.sdf', '/opt/xchem-fragalysis-2/maxwin/CHIKV_HIPPO/hippo_prod/CHIKV_prod11c_recipes/Recipe_1GJXW46_poses.sdf']

>  <method>  (274) 
None

>  <submitter_email>  (274) 
None

>  <submitter_name>  (274) 
None

$$$$
VQXPJAIIEBZGRT-UHFFFAOYSA-N
     RDKit          3D

 22 23  0  0  0  0  0  0  0  0999 V2000
   21.8021   10.9644   10.5493 C   0  0  0  0  0  0  0  0  0  0  0  0
   20.4751   11.4960   10.4561 O   0  0  0  0  0  0  0  0  0  0  0  0
   20.2551   12.5959   11.2351 C   0  0  0  0  0  0  0  0  0  0  0  0
   21.3017   13.4521   11.6119 C   0  0  0  0  0  0  0  0  0  0  0  0
   21.0991   14.4547   12.5580 C   0  0  0  0  0  0  0  0  0  0  0  0
   19.8511   14.6306   13.1274 C   0  0  0  0  0  0  0  0  0  0  0  0
   19.6166   15.6100   14.0782 N   0  0  0  0  0  0  0  0  0  0  0  0
   18.7849   13.9287   12.6050 C   0  0  0  0  0  0  0  0  0  0  0  0
   18.9629   12.8800   11.6879 C   0  0  0  0  0  0  0  0  0  0  0  0
   17.6995   12.1453   11.4459 C   0  0  0  0  0  0  0  0  0  0  0  0
   16.6571   12.6475   11.8766 O   0  0  0  0  0  0  0  0  0  0  0  0
   17.6752   10.9511   10.7572 N   0  0  0  0  0  0  0  0  0  0  0  0
   16.5550   10.0928   10.8873 C   0  0  0  0  0  0  0  0  0  0  0  0
   16.1142    9.3429    9.8040 C   0  0  0  0  0  0  0  0  0  0  0  0
   15.1019    8.3968    9.9774 C   0  0  0  0  0  0  0  0  0  0  0  0
   14.5643    8.1601   11.2377 C   0  0  0  0  0  0  0  0  0  0  0  0
   13.6526    7.1421   11.3137 O   0  0  0  0  0  0  0  0  0  0  0  0
   14.9505    8.9466   12.3227 C   0  0  0  0  0  0  0  0  0  0  0  0
   14.3546    8.8321   13.6162 C   0  0  0  0  0  0  0  0  0  0  0  0
   13.7732    8.7174   14.6159 N   0  0  0  0  0  0  0  0  0  0  0  0
   15.9348    9.9059   12.1368 C   0  0  0  0  0  0  0  0  0  0  0  0
   16.3876   10.5539   13.2241 F   0  0  0  0  0  0  0  0  0  0  0  0
  1  2  1  0
  2  3  1  0
  3  4  2  0
  4  5  1  0
  5  6  2  0
  6  7  1  0
  6  8  1  0
  8  9  2  0
  9 10  1  0
 10 11  2  0
 10 12  1  0
 12 13  1  0
 13 14  2  0
 14 15  1  0
 15 16  2  0
 16 17  1  0
 16 18  1  0
 18 19  1  0
 19 20  3  0
 18 21  2  0
 21 22  1  0
  9  3  1  0
 21 13  1  0
M  END
>  <HIPPO ID>  (275) 
94768

>  <ref_url>  (275) 
None

>  <ref_pdb>  (275) 
c0270a

>  <inchikey>  (275) 
VQXPJAIIEBZGRT-UHFFFAOYSA-N

>  <original SMILES>  (275) 
COc1ccc(N)cc1C(=O)Nc1ccc(O)c(C#N)c1F

>  <generation_date>  (275) 
None

>  <tags>  (275) 
[]

>  <ref_mols>  (275) 
c0935a,c1118a

>  <alias>  (275) 
None

>  <original ID>  (275) 
VQXPJAIIEBZGRT-UHFFFAOYSA-N

>  <exports>  (275) 
['/opt/xchem-fragalysis-2/maxwin/CHIKV_HIPPO/hippo_prod/CHIKV_prod11c_recipes/Recipe_1GJWBFH_poses.sdf', '/opt/xchem-fragalysis-2/maxwin/CHIKV_HIPPO/hippo_prod/CHIKV_prod11c_recipes/Recipe_1GJXK8G_poses.sdf', '/opt/xchem-fragalysis-2/maxwin/CHIKV_HIPPO/hippo_prod/CHIKV_prod11c_recipes/Recipe_1GJXW46_poses.sdf']

>  <method>  (275) 
None

>  <submitter_email>  (275) 
None

>  <submitter_name>  (275) 
None

$$$$
RSECLUYFDJDZLL-UHFFFAOYSA-N
     RDKit          3D

 22 23  0  0  0  0  0  0  0  0999 V2000
   22.4949   11.8952   10.0752 C   0  0  0  0  0  0  0  0  0  0  0  0
   21.1925   11.6770   10.6242 O   0  0  0  0  0  0  0  0  0  0  0  0
   20.6145   12.7204   11.2929 C   0  0  0  0  0  0  0  0  0  0  0  0
   21.3479   13.8008   11.7882 C   0  0  0  0  0  0  0  0  0  0  0  0
   20.7136   14.8216   12.5001 C   0  0  0  0  0  0  0  0  0  0  0  0
   19.3469   14.7764   12.7431 C   0  0  0  0  0  0  0  0  0  0  0  0
   18.6763   15.8388   13.3139 N   0  0  0  0  0  0  0  0  0  0  0  0
   18.6064   13.7488   12.2047 C   0  0  0  0  0  0  0  0  0  0  0  0
   19.2284   12.6951   11.5343 C   0  0  0  0  0  0  0  0  0  0  0  0
   18.3372   11.5875   11.1323 C   0  0  0  0  0  0  0  0  0  0  0  0
   18.6152   10.8780   10.1895 O   0  0  0  0  0  0  0  0  0  0  0  0
   17.2478   11.3662   11.9548 N   0  0  0  0  0  0  0  0  0  0  0  0
   16.3229   10.3265   11.8068 C   0  0  0  0  0  0  0  0  0  0  0  0
   15.9276    9.8252   10.5768 C   0  0  0  0  0  0  0  0  0  0  0  0
   14.9612    8.8216   10.5436 C   0  0  0  0  0  0  0  0  0  0  0  0
   13.8482    8.6897    8.8331 I   0  0  0  0  0  0  0  0  0  0  0  0
   14.5406    8.1699   11.7061 C   0  0  0  0  0  0  0  0  0  0  0  0
   13.5773    7.1912   11.6730 O   0  0  0  0  0  0  0  0  0  0  0  0
   14.1093    5.9193   11.3268 C   0  0  0  0  0  0  0  0  0  0  0  0
   14.9057    8.7249   12.9319 C   0  0  0  0  0  0  0  0  0  0  0  0
   14.0819    8.0943   14.7456 I   0  0  0  0  0  0  0  0  0  0  0  0
   15.7645    9.8199   12.9799 C   0  0  0  0  0  0  0  0  0  0  0  0
  1  2  1  0
  2  3  1  0
  3  4  2  0
  4  5  1  0
  5  6  2  0
  6  7  1  0
  6  8  1  0
  8  9  2  0
  9 10  1  0
 10 11  2  0
 10 12  1  0
 12 13  1  0
 13 14  2  0
 14 15  1  0
 15 16  1  0
 15 17  2  0
 17 18  1  0
 18 19  1  0
 17 20  1  0
 20 21  1  0
 20 22  2  0
  9  3  1  0
 22 13  1  0
M  END
>  <HIPPO ID>  (276) 
94770

>  <ref_url>  (276) 
None

>  <ref_pdb>  (276) 
c0270a

>  <inchikey>  (276) 
RSECLUYFDJDZLL-UHFFFAOYSA-N

>  <original SMILES>  (276) 
COc1ccc(N)cc1C(=O)Nc1cc(I)c(OC)c(I)c1

>  <generation_date>  (276) 
None

>  <tags>  (276) 
[]

>  <ref_mols>  (276) 
c0935a,c1118a

>  <alias>  (276) 
None

>  <original ID>  (276) 
RSECLUYFDJDZLL-UHFFFAOYSA-N

>  <exports>  (276) 
['/opt/xchem-fragalysis-2/maxwin/CHIKV_HIPPO/hippo_prod/CHIKV_prod11c_recipes/Recipe_1GJWBFH_poses.sdf', '/opt/xchem-fragalysis-2/maxwin/CHIKV_HIPPO/hippo_prod/CHIKV_prod11c_recipes/Recipe_1GJXK8G_poses.sdf', '/opt/xchem-fragalysis-2/maxwin/CHIKV_HIPPO/hippo_prod/CHIKV_prod11c_recipes/Recipe_1GJXW46_poses.sdf']

>  <method>  (276) 
None

>  <submitter_email>  (276) 
None

>  <submitter_name>  (276) 
None

$$$$
GKFPEJOKNPVGKC-UHFFFAOYSA-N
     RDKit          3D

 23 24  0  0  0  0  0  0  0  0999 V2000
   21.5236   11.1897   10.3627 C   0  0  0  0  0  0  0  0  0  0  0  0
   20.1479   11.5463   10.4269 O   0  0  0  0  0  0  0  0  0  0  0  0
   19.8103   12.5699   11.2617 C   0  0  0  0  0  0  0  0  0  0  0  0
   20.7232   13.5298   11.7376 C   0  0  0  0  0  0  0  0  0  0  0  0
   20.3235   14.5484   12.6319 C   0  0  0  0  0  0  0  0  0  0  0  0
   21.3166   15.5488   13.1378 C   0  0  0  0  0  0  0  0  0  0  0  0
   18.9898   14.5965   13.0365 C   0  0  0  0  0  0  0  0  0  0  0  0
   18.4107   15.5687   13.9729 C   0  0  0  0  0  0  0  0  0  0  0  0
   18.6858   16.7460   14.0497 O   0  0  0  0  0  0  0  0  0  0  0  0
   17.4809   14.9929   14.7639 O   0  0  0  0  0  0  0  0  0  0  0  0
   18.0887   13.6918   12.5277 C   0  0  0  0  0  0  0  0  0  0  0  0
   18.4720   12.6843   11.6468 C   0  0  0  0  0  0  0  0  0  0  0  0
   17.3112   11.8453   11.3163 C   0  0  0  0  0  0  0  0  0  0  0  0
   16.1905   12.2958   11.5675 O   0  0  0  0  0  0  0  0  0  0  0  0
   17.4666   10.6094   10.7498 N   0  0  0  0  0  0  0  0  0  0  0  0
   16.3388    9.7507   10.7755 C   0  0  0  0  0  0  0  0  0  0  0  0
   15.8712    9.2574    9.5647 C   0  0  0  0  0  0  0  0  0  0  0  0
   14.8002    8.3744    9.5446 C   0  0  0  0  0  0  0  0  0  0  0  0
   14.3123    7.8553   10.7293 C   0  0  0  0  0  0  0  0  0  0  0  0
   13.3692    6.8737   10.7204 O   0  0  0  0  0  0  0  0  0  0  0  0
   14.7431    8.3501   11.9470 C   0  0  0  0  0  0  0  0  0  0  0  0
   15.6944    9.3643   11.9724 C   0  0  0  0  0  0  0  0  0  0  0  0
   16.0577   10.0247   13.5326 Cl  0  0  0  0  0  0  0  0  0  0  0  0
  1  2  1  0
  2  3  1  0
  3  4  2  0
  4  5  1  0
  5  6  1  0
  5  7  2  0
  7  8  1  0
  8  9  2  0
  8 10  1  0
  7 11  1  0
 11 12  2  0
 12 13  1  0
 13 14  2  0
 13 15  1  0
 15 16  1  0
 16 17  2  0
 17 18  1  0
 18 19  2  0
 19 20  1  0
 19 21  1  0
 21 22  2  0
 22 23  1  0
 12  3  1  0
 22 16  1  0
M  END
>  <HIPPO ID>  (277) 
95555

>  <ref_url>  (277) 
None

>  <ref_pdb>  (277) 
c0270a

>  <inchikey>  (277) 
GKFPEJOKNPVGKC-UHFFFAOYSA-N

>  <original SMILES>  (277) 
COc1cc(C)c(C(=O)O)cc1C(=O)Nc1ccc(O)cc1Cl

>  <generation_date>  (277) 
None

>  <tags>  (277) 
[]

>  <ref_mols>  (277) 
c0935a,c1118a

>  <alias>  (277) 
None

>  <original ID>  (277) 
GKFPEJOKNPVGKC-UHFFFAOYSA-N

>  <exports>  (277) 
['/opt/xchem-fragalysis-2/maxwin/CHIKV_HIPPO/hippo_prod/CHIKV_prod11c_recipes/Recipe_1GJWBFH_poses.sdf', '/opt/xchem-fragalysis-2/maxwin/CHIKV_HIPPO/hippo_prod/CHIKV_prod11c_recipes/Recipe_1GJXK8G_poses.sdf', '/opt/xchem-fragalysis-2/maxwin/CHIKV_HIPPO/hippo_prod/CHIKV_prod11c_recipes/Recipe_1GJXW46_poses.sdf']

>  <method>  (277) 
None

>  <submitter_email>  (277) 
None

>  <submitter_name>  (277) 
None

$$$$
ZNXMDNIDLCJILC-UHFFFAOYSA-N
     RDKit          3D

 23 24  0  0  0  0  0  0  0  0999 V2000
   22.0416   12.2444   10.3823 C   0  0  0  0  0  0  0  0  0  0  0  0
   20.7151   12.7973   10.4178 O   0  0  0  0  0  0  0  0  0  0  0  0
   20.3665   13.4871   11.5414 C   0  0  0  0  0  0  0  0  0  0  0  0
   21.3500   14.3080   12.1389 C   0  0  0  0  0  0  0  0  0  0  0  0
   21.0841   15.0842   13.2676 C   0  0  0  0  0  0  0  0  0  0  0  0
   22.1859   15.8763   13.9035 C   0  0  0  0  0  0  0  0  0  0  0  0
   19.7805   15.0774   13.7523 C   0  0  0  0  0  0  0  0  0  0  0  0
   19.3468   15.7595   14.9715 C   0  0  0  0  0  0  0  0  0  0  0  0
   18.6270   15.2679   15.8216 O   0  0  0  0  0  0  0  0  0  0  0  0
   19.7744   17.0242   15.0075 O   0  0  0  0  0  0  0  0  0  0  0  0
   18.7907   14.3124   13.1402 C   0  0  0  0  0  0  0  0  0  0  0  0
   19.0477   13.4765   12.0433 C   0  0  0  0  0  0  0  0  0  0  0  0
   17.7875   12.7242   11.6694 C   0  0  0  0  0  0  0  0  0  0  0  0
   16.7242   13.2969   11.9452 O   0  0  0  0  0  0  0  0  0  0  0  0
   17.7509   11.4468   11.1204 N   0  0  0  0  0  0  0  0  0  0  0  0
   18.8894   10.8371   10.4984 C   0  0  0  0  0  0  0  0  0  0  0  0
   16.6085   10.5898   11.3047 C   0  0  0  0  0  0  0  0  0  0  0  0
   16.2244    9.6702   10.3138 C   0  0  0  0  0  0  0  0  0  0  0  0
   15.3540    8.6192   10.6017 C   0  0  0  0  0  0  0  0  0  0  0  0
   14.8747    8.4757   11.8921 C   0  0  0  0  0  0  0  0  0  0  0  0
   14.1291    7.3686   12.1743 O   0  0  0  0  0  0  0  0  0  0  0  0
   15.1460    9.4364   12.8630 C   0  0  0  0  0  0  0  0  0  0  0  0
   15.9913   10.5089   12.5600 C   0  0  0  0  0  0  0  0  0  0  0  0
  1  2  1  0
  2  3  1  0
  3  4  2  0
  4  5  1  0
  5  6  1  0
  5  7  2  0
  7  8  1  0
  8  9  2  0
  8 10  1  0
  7 11  1  0
 11 12  2  0
 12 13  1  0
 13 14  2  0
 13 15  1  0
 15 16  1  0
 15 17  1  0
 17 18  2  0
 18 19  1  0
 19 20  2  0
 20 21  1  0
 20 22  1  0
 22 23  2  0
 12  3  1  0
 23 17  1  0
M  END
>  <HIPPO ID>  (278) 
95565

>  <ref_url>  (278) 
None

>  <ref_pdb>  (278) 
c0270a

>  <inchikey>  (278) 
ZNXMDNIDLCJILC-UHFFFAOYSA-N

>  <original SMILES>  (278) 
COc1cc(C)c(C(=O)O)cc1C(=O)N(C)c1ccc(O)cc1

>  <generation_date>  (278) 
None

>  <tags>  (278) 
[]

>  <ref_mols>  (278) 
c0935a,c1118a

>  <alias>  (278) 
None

>  <original ID>  (278) 
ZNXMDNIDLCJILC-UHFFFAOYSA-N

>  <exports>  (278) 
['/opt/xchem-fragalysis-2/maxwin/CHIKV_HIPPO/hippo_prod/CHIKV_prod11c_recipes/Recipe_1GJXW46_poses.sdf']

>  <method>  (278) 
None

>  <submitter_email>  (278) 
None

>  <submitter_name>  (278) 
None

$$$$
KEMBBUSRGXJKDQ-UHFFFAOYSA-N
     RDKit          3D

 24 25  0  0  0  0  0  0  0  0999 V2000
   22.4082   12.0326    9.9532 C   0  0  0  0  0  0  0  0  0  0  0  0
   21.0483   11.7287   10.2405 O   0  0  0  0  0  0  0  0  0  0  0  0
   20.3013   12.6536   10.9134 C   0  0  0  0  0  0  0  0  0  0  0  0
   20.8339   13.7444   11.6163 C   0  0  0  0  0  0  0  0  0  0  0  0
   20.0076   14.5274   12.4413 C   0  0  0  0  0  0  0  0  0  0  0  0
   20.5981   15.5437   13.3672 C   0  0  0  0  0  0  0  0  0  0  0  0
   18.6513   14.2095   12.4693 C   0  0  0  0  0  0  0  0  0  0  0  0
   17.6707   14.5471   13.4634 C   0  0  0  0  0  0  0  0  0  0  0  0
   17.3632   13.7376   14.3158 O   0  0  0  0  0  0  0  0  0  0  0  0
   16.9501   15.6103   13.1086 O   0  0  0  0  0  0  0  0  0  0  0  0
   18.0857   13.2492   11.6753 C   0  0  0  0  0  0  0  0  0  0  0  0
   18.9093   12.4387   10.9533 C   0  0  0  0  0  0  0  0  0  0  0  0
   18.2519   11.1761   10.7055 C   0  0  0  0  0  0  0  0  0  0  0  0
   18.8551   10.2345   11.1514 O   0  0  0  0  0  0  0  0  0  0  0  0
   16.9644   11.1131   10.2191 N   0  0  0  0  0  0  0  0  0  0  0  0
   16.0732   10.0738   10.5903 C   0  0  0  0  0  0  0  0  0  0  0  0
   15.3824    9.4440    9.5564 C   0  0  0  0  0  0  0  0  0  0  0  0
   14.5187    8.3975    9.8346 C   0  0  0  0  0  0  0  0  0  0  0  0
   13.7603    7.9058    8.8515 F   0  0  0  0  0  0  0  0  0  0  0  0
   14.3813    7.9195   11.1299 C   0  0  0  0  0  0  0  0  0  0  0  0
   13.5374    6.8726   11.3686 O   0  0  0  0  0  0  0  0  0  0  0  0
   15.0016    8.5819   12.1816 C   0  0  0  0  0  0  0  0  0  0  0  0
   15.7940    9.7013   11.9146 C   0  0  0  0  0  0  0  0  0  0  0  0
   16.2412   10.6651   13.2734 Cl  0  0  0  0  0  0  0  0  0  0  0  0
  1  2  1  0
  2  3  1  0
  3  4  2  0
  4  5  1  0
  5  6  1  0
  5  7  2  0
  7  8  1  0
  8  9  2  0
  8 10  1  0
  7 11  1  0
 11 12  2  0
 12 13  1  0
 13 14  2  0
 13 15  1  0
 15 16  1  0
 16 17  2  0
 17 18  1  0
 18 19  1  0
 18 20  2  0
 20 21  1  0
 20 22  1  0
 22 23  2  0
 23 24  1  0
 12  3  1  0
 23 16  1  0
M  END
>  <HIPPO ID>  (279) 
96554

>  <ref_url>  (279) 
None

>  <ref_pdb>  (279) 
c0270a

>  <inchikey>  (279) 
KEMBBUSRGXJKDQ-UHFFFAOYSA-N

>  <original SMILES>  (279) 
COc1cc(C)c(C(=O)O)cc1C(=O)Nc1cc(F)c(O)cc1Cl

>  <generation_date>  (279) 
None

>  <tags>  (279) 
[]

>  <ref_mols>  (279) 
c0935a,c1118a

>  <alias>  (279) 
None

>  <original ID>  (279) 
KEMBBUSRGXJKDQ-UHFFFAOYSA-N

>  <exports>  (279) 
['/opt/xchem-fragalysis-2/maxwin/CHIKV_HIPPO/hippo_prod/CHIKV_prod11c_recipes/Recipe_1GJWBFH_poses.sdf', '/opt/xchem-fragalysis-2/maxwin/CHIKV_HIPPO/hippo_prod/CHIKV_prod11c_recipes/Recipe_1GJXK8G_poses.sdf', '/opt/xchem-fragalysis-2/maxwin/CHIKV_HIPPO/hippo_prod/CHIKV_prod11c_recipes/Recipe_1GJXW46_poses.sdf']

>  <method>  (279) 
None

>  <submitter_email>  (279) 
None

>  <submitter_name>  (279) 
None

$$$$
YFMMIRISAYEDEX-UHFFFAOYSA-N
     RDKit          3D

 24 25  0  0  0  0  0  0  0  0999 V2000
   21.7360   11.1616   10.6452 C   0  0  0  0  0  0  0  0  0  0  0  0
   20.3826   11.6016   10.5566 O   0  0  0  0  0  0  0  0  0  0  0  0
   20.0260   12.6631   11.3364 C   0  0  0  0  0  0  0  0  0  0  0  0
   20.9312   13.6075   11.8470 C   0  0  0  0  0  0  0  0  0  0  0  0
   20.5099   14.6451   12.7181 C   0  0  0  0  0  0  0  0  0  0  0  0
   21.5225   15.5782   13.3076 C   0  0  0  0  0  0  0  0  0  0  0  0
   19.1550   14.7567   13.0430 C   0  0  0  0  0  0  0  0  0  0  0  0
   18.5663   15.6892   14.0321 C   0  0  0  0  0  0  0  0  0  0  0  0
   19.1715   16.4178   14.7881 O   0  0  0  0  0  0  0  0  0  0  0  0
   17.2177   15.6418   14.0688 O   0  0  0  0  0  0  0  0  0  0  0  0
   18.2709   13.8777   12.4709 C   0  0  0  0  0  0  0  0  0  0  0  0
   18.6780   12.8277   11.6510 C   0  0  0  0  0  0  0  0  0  0  0  0
   17.5327   11.9528   11.3891 C   0  0  0  0  0  0  0  0  0  0  0  0
   16.4139   12.3375   11.7425 O   0  0  0  0  0  0  0  0  0  0  0  0
   17.7032   10.7144   10.8393 N   0  0  0  0  0  0  0  0  0  0  0  0
   16.6230    9.8354   11.0197 C   0  0  0  0  0  0  0  0  0  0  0  0
   16.0435    9.2588    9.9256 C   0  0  0  0  0  0  0  0  0  0  0  0
   14.9200    8.4861   10.1498 C   0  0  0  0  0  0  0  0  0  0  0  0
   13.5570    8.5656    8.6693 I   0  0  0  0  0  0  0  0  0  0  0  0
   14.5426    8.0497   11.4183 C   0  0  0  0  0  0  0  0  0  0  0  0
   13.5688    7.0951   11.5437 O   0  0  0  0  0  0  0  0  0  0  0  0
   15.1039    8.6725   12.5185 C   0  0  0  0  0  0  0  0  0  0  0  0
   14.4216    8.3519   14.4587 I   0  0  0  0  0  0  0  0  0  0  0  0
   16.1004    9.6117   12.3115 C   0  0  0  0  0  0  0  0  0  0  0  0
  1  2  1  0
  2  3  1  0
  3  4  2  0
  4  5  1  0
  5  6  1  0
  5  7  2  0
  7  8  1  0
  8  9  2  0
  8 10  1  0
  7 11  1  0
 11 12  2  0
 12 13  1  0
 13 14  2  0
 13 15  1  0
 15 16  1  0
 16 17  2  0
 17 18  1  0
 18 19  1  0
 18 20  2  0
 20 21  1  0
 20 22  1  0
 22 23  1  0
 22 24  2  0
 12  3  1  0
 24 16  1  0
M  END
>  <HIPPO ID>  (280) 
96591

>  <ref_url>  (280) 
None

>  <ref_pdb>  (280) 
c0270a

>  <inchikey>  (280) 
YFMMIRISAYEDEX-UHFFFAOYSA-N

>  <original SMILES>  (280) 
COc1cc(C)c(C(=O)O)cc1C(=O)Nc1cc(I)c(O)c(I)c1

>  <generation_date>  (280) 
None

>  <tags>  (280) 
[]

>  <ref_mols>  (280) 
c0935a,c1118a

>  <alias>  (280) 
None

>  <original ID>  (280) 
YFMMIRISAYEDEX-UHFFFAOYSA-N

>  <exports>  (280) 
['/opt/xchem-fragalysis-2/maxwin/CHIKV_HIPPO/hippo_prod/CHIKV_prod11c_recipes/Recipe_1GJWBFH_poses.sdf', '/opt/xchem-fragalysis-2/maxwin/CHIKV_HIPPO/hippo_prod/CHIKV_prod11c_recipes/Recipe_1GJXK8G_poses.sdf', '/opt/xchem-fragalysis-2/maxwin/CHIKV_HIPPO/hippo_prod/CHIKV_prod11c_recipes/Recipe_1GJXW46_poses.sdf']

>  <method>  (280) 
None

>  <submitter_email>  (280) 
None

>  <submitter_name>  (280) 
None

$$$$
LVSQTCQFNZKWPE-UHFFFAOYSA-N
     RDKit          3D

 25 26  0  0  0  0  0  0  0  0999 V2000
   21.6892   11.2439   10.4535 C   0  0  0  0  0  0  0  0  0  0  0  0
   20.3245   11.6341   10.5205 O   0  0  0  0  0  0  0  0  0  0  0  0
   20.0028   12.6791   11.3342 C   0  0  0  0  0  0  0  0  0  0  0  0
   20.9250   13.5954   11.8668 C   0  0  0  0  0  0  0  0  0  0  0  0
   20.5175   14.6275   12.7496 C   0  0  0  0  0  0  0  0  0  0  0  0
   21.5330   15.5417   13.3578 C   0  0  0  0  0  0  0  0  0  0  0  0
   19.1644   14.7467   13.0655 C   0  0  0  0  0  0  0  0  0  0  0  0
   18.5018   15.6491   14.0161 C   0  0  0  0  0  0  0  0  0  0  0  0
   17.3668   16.0735   13.8942 O   0  0  0  0  0  0  0  0  0  0  0  0
   19.2105   15.8303   15.1340 O   0  0  0  0  0  0  0  0  0  0  0  0
   18.2604   13.8912   12.4922 C   0  0  0  0  0  0  0  0  0  0  0  0
   18.6574   12.8493   11.6609 C   0  0  0  0  0  0  0  0  0  0  0  0
   17.5132   11.9800   11.3870 C   0  0  0  0  0  0  0  0  0  0  0  0
   16.3955   12.3711   11.7345 O   0  0  0  0  0  0  0  0  0  0  0  0
   17.6889   10.7400   10.8379 N   0  0  0  0  0  0  0  0  0  0  0  0
   16.6213    9.8494   11.0266 C   0  0  0  0  0  0  0  0  0  0  0  0
   16.0542    9.2379    9.9445 C   0  0  0  0  0  0  0  0  0  0  0  0
   14.9119    8.4827   10.1708 C   0  0  0  0  0  0  0  0  0  0  0  0
   13.5687    8.6804    8.6567 I   0  0  0  0  0  0  0  0  0  0  0  0
   14.5175    8.0667   11.4478 C   0  0  0  0  0  0  0  0  0  0  0  0
   13.5079    7.1923   11.7336 O   0  0  0  0  0  0  0  0  0  0  0  0
   13.3264    6.0988   10.8593 C   0  0  0  0  0  0  0  0  0  0  0  0
   15.0862    8.7278   12.5316 C   0  0  0  0  0  0  0  0  0  0  0  0
   14.4174    8.4895   14.5044 I   0  0  0  0  0  0  0  0  0  0  0  0
   16.0935    9.6530   12.3144 C   0  0  0  0  0  0  0  0  0  0  0  0
  1  2  1  0
  2  3  1  0
  3  4  2  0
  4  5  1  0
  5  6  1  0
  5  7  2  0
  7  8  1  0
  8  9  2  0
  8 10  1  0
  7 11  1  0
 11 12  2  0
 12 13  1  0
 13 14  2  0
 13 15  1  0
 15 16  1  0
 16 17  2  0
 17 18  1  0
 18 19  1  0
 18 20  2  0
 20 21  1  0
 21 22  1  0
 20 23  1  0
 23 24  1  0
 23 25  2  0
 12  3  1  0
 25 16  1  0
M  END
>  <HIPPO ID>  (281) 
97453

>  <ref_url>  (281) 
None

>  <ref_pdb>  (281) 
c0270a

>  <inchikey>  (281) 
LVSQTCQFNZKWPE-UHFFFAOYSA-N

>  <original SMILES>  (281) 
COc1cc(C)c(C(=O)O)cc1C(=O)Nc1cc(I)c(OC)c(I)c1

>  <generation_date>  (281) 
None

>  <tags>  (281) 
[]

>  <ref_mols>  (281) 
c0935a,c1118a

>  <alias>  (281) 
None

>  <original ID>  (281) 
LVSQTCQFNZKWPE-UHFFFAOYSA-N

>  <exports>  (281) 
['/opt/xchem-fragalysis-2/maxwin/CHIKV_HIPPO/hippo_prod/CHIKV_prod11c_recipes/Recipe_1GJWBFH_poses.sdf', '/opt/xchem-fragalysis-2/maxwin/CHIKV_HIPPO/hippo_prod/CHIKV_prod11c_recipes/Recipe_1GJXK8G_poses.sdf', '/opt/xchem-fragalysis-2/maxwin/CHIKV_HIPPO/hippo_prod/CHIKV_prod11c_recipes/Recipe_1GJXW46_poses.sdf']

>  <method>  (281) 
None

>  <submitter_email>  (281) 
None

>  <submitter_name>  (281) 
None

$$$$
PTYWZFJTOTWABR-UHFFFAOYSA-N
     RDKit          3D

 25 26  0  0  0  0  0  0  0  0999 V2000
   21.7622   11.5061   10.1772 C   0  0  0  0  0  0  0  0  0  0  0  0
   20.3682   11.6111   10.4636 O   0  0  0  0  0  0  0  0  0  0  0  0
   19.9760   12.6193   11.2973 C   0  0  0  0  0  0  0  0  0  0  0  0
   20.8591   13.5591   11.8690 C   0  0  0  0  0  0  0  0  0  0  0  0
   20.4115   14.5734   12.7492 C   0  0  0  0  0  0  0  0  0  0  0  0
   21.3902   15.5272   13.3586 C   0  0  0  0  0  0  0  0  0  0  0  0
   19.0565   14.6321   13.0596 C   0  0  0  0  0  0  0  0  0  0  0  0
   18.3596   15.5325   13.9875 C   0  0  0  0  0  0  0  0  0  0  0  0
   17.2188   15.9310   13.8390 O   0  0  0  0  0  0  0  0  0  0  0  0
   19.0520   15.7580   15.1081 O   0  0  0  0  0  0  0  0  0  0  0  0
   18.1928   13.7315   12.4849 C   0  0  0  0  0  0  0  0  0  0  0  0
   18.6199   12.7257   11.6150 C   0  0  0  0  0  0  0  0  0  0  0  0
   17.4719   11.8807   11.2559 C   0  0  0  0  0  0  0  0  0  0  0  0
   16.3461   12.3036   11.5430 O   0  0  0  0  0  0  0  0  0  0  0  0
   17.6064   10.6576   10.6479 N   0  0  0  0  0  0  0  0  0  0  0  0
   16.4893    9.7963   10.7768 C   0  0  0  0  0  0  0  0  0  0  0  0
   15.9682    9.1431    9.6744 C   0  0  0  0  0  0  0  0  0  0  0  0
   14.9149    8.2486    9.8511 C   0  0  0  0  0  0  0  0  0  0  0  0
   14.4313    7.9669   11.1274 C   0  0  0  0  0  0  0  0  0  0  0  0
   13.4754    7.0023   11.2763 O   0  0  0  0  0  0  0  0  0  0  0  0
   14.8915    8.6769   12.2346 C   0  0  0  0  0  0  0  0  0  0  0  0
   14.3170    8.5639   13.5408 C   0  0  0  0  0  0  0  0  0  0  0  0
   13.7996    8.5457   14.5822 N   0  0  0  0  0  0  0  0  0  0  0  0
   15.9073    9.5941   12.0451 C   0  0  0  0  0  0  0  0  0  0  0  0
   16.4006   10.2370   13.1200 F   0  0  0  0  0  0  0  0  0  0  0  0
  1  2  1  0
  2  3  1  0
  3  4  2  0
  4  5  1  0
  5  6  1  0
  5  7  2  0
  7  8  1  0
  8  9  2  0
  8 10  1  0
  7 11  1  0
 11 12  2  0
 12 13  1  0
 13 14  2  0
 13 15  1  0
 15 16  1  0
 16 17  2  0
 17 18  1  0
 18 19  2  0
 19 20  1  0
 19 21  1  0
 21 22  1  0
 22 23  3  0
 21 24  2  0
 24 25  1  0
 12  3  1  0
 24 16  1  0
M  END
>  <HIPPO ID>  (282) 
97458

>  <ref_url>  (282) 
None

>  <ref_pdb>  (282) 
c0270a

>  <inchikey>  (282) 
PTYWZFJTOTWABR-UHFFFAOYSA-N

>  <original SMILES>  (282) 
COc1cc(C)c(C(=O)O)cc1C(=O)Nc1ccc(O)c(C#N)c1F

>  <generation_date>  (282) 
None

>  <tags>  (282) 
[]

>  <ref_mols>  (282) 
c0935a,c1118a

>  <alias>  (282) 
None

>  <original ID>  (282) 
PTYWZFJTOTWABR-UHFFFAOYSA-N

>  <exports>  (282) 
['/opt/xchem-fragalysis-2/maxwin/CHIKV_HIPPO/hippo_prod/CHIKV_prod11c_recipes/Recipe_1GJWBFH_poses.sdf', '/opt/xchem-fragalysis-2/maxwin/CHIKV_HIPPO/hippo_prod/CHIKV_prod11c_recipes/Recipe_1GJXK8G_poses.sdf', '/opt/xchem-fragalysis-2/maxwin/CHIKV_HIPPO/hippo_prod/CHIKV_prod11c_recipes/Recipe_1GJXW46_poses.sdf']

>  <method>  (282) 
None

>  <submitter_email>  (282) 
None

>  <submitter_name>  (282) 
None

$$$$
BVVWEQPKDQFMBK-UHFFFAOYSA-N
     RDKit          3D

 25 26  0  0  0  0  0  0  0  0999 V2000
   21.2799   11.2976   10.6722 C   0  0  0  0  0  0  0  0  0  0  0  0
   19.8661   11.5480   10.6442 O   0  0  0  0  0  0  0  0  0  0  0  0
   19.4701   12.6939   11.2803 C   0  0  0  0  0  0  0  0  0  0  0  0
   20.2675   13.8501   11.3249 C   0  0  0  0  0  0  0  0  0  0  0  0
   19.8746   14.9771   12.0683 C   0  0  0  0  0  0  0  0  0  0  0  0
   20.7988   16.1527   12.1685 C   0  0  0  0  0  0  0  0  0  0  0  0
   18.6566   14.9248   12.7492 C   0  0  0  0  0  0  0  0  0  0  0  0
   18.2052   15.9707   13.6564 C   0  0  0  0  0  0  0  0  0  0  0  0
   18.3678   15.8977   14.8584 O   0  0  0  0  0  0  0  0  0  0  0  0
   17.5631   16.9516   13.0012 O   0  0  0  0  0  0  0  0  0  0  0  0
   17.8238   13.8232   12.6635 C   0  0  0  0  0  0  0  0  0  0  0  0
   18.2255   12.7096   11.9272 C   0  0  0  0  0  0  0  0  0  0  0  0
   17.3144   11.5640   12.0862 C   0  0  0  0  0  0  0  0  0  0  0  0
   16.9560   11.3305   13.2321 O   0  0  0  0  0  0  0  0  0  0  0  0
   16.8693   10.9444   10.9547 N   0  0  0  0  0  0  0  0  0  0  0  0
   15.9135    9.9031   10.8455 C   0  0  0  0  0  0  0  0  0  0  0  0
   15.4790    9.6951    9.5320 C   0  0  0  0  0  0  0  0  0  0  0  0
   14.6356    8.6437    9.1977 C   0  0  0  0  0  0  0  0  0  0  0  0
   14.3056    7.6942   10.1418 C   0  0  0  0  0  0  0  0  0  0  0  0
   13.6664    6.5562    9.7586 O   0  0  0  0  0  0  0  0  0  0  0  0
   14.6310    7.8992   11.4663 C   0  0  0  0  0  0  0  0  0  0  0  0
   15.3725    9.0455   11.8193 C   0  0  0  0  0  0  0  0  0  0  0  0
   15.4611    9.2572   13.2450 N   0  0  0  0  0  4  0  0  0  0  0  0
   14.5661    9.9413   13.7628 O   0  0  0  0  0  0  0  0  0  0  0  0
   16.3214    8.6069   13.8540 O   0  0  0  0  0  1  0  0  0  0  0  0
  1  2  1  0
  2  3  1  0
  3  4  2  0
  4  5  1  0
  5  6  1  0
  5  7  2  0
  7  8  1  0
  8  9  2  0
  8 10  1  0
  7 11  1  0
 11 12  2  0
 12 13  1  0
 13 14  2  0
 13 15  1  0
 15 16  1  0
 16 17  2  0
 17 18  1  0
 18 19  2  0
 19 20  1  0
 19 21  1  0
 21 22  2  0
 22 23  1  0
 23 24  2  0
 23 25  1  0
 12  3  1  0
 22 16  1  0
M  CHG  2  23   1  25  -1
M  END
>  <HIPPO ID>  (283) 
97466

>  <ref_url>  (283) 
None

>  <ref_pdb>  (283) 
c0270a

>  <inchikey>  (283) 
BVVWEQPKDQFMBK-UHFFFAOYSA-N

>  <original SMILES>  (283) 
COc1cc(C)c(C(=O)O)cc1C(=O)Nc1ccc(O)cc1[N+](=O)[O-]

>  <generation_date>  (283) 
None

>  <tags>  (283) 
[]

>  <ref_mols>  (283) 
c0935a,c1118a

>  <alias>  (283) 
None

>  <original ID>  (283) 
BVVWEQPKDQFMBK-UHFFFAOYSA-N

>  <exports>  (283) 
['/opt/xchem-fragalysis-2/maxwin/CHIKV_HIPPO/hippo_prod/CHIKV_prod11c_recipes/Recipe_1GJWBFH_poses.sdf', '/opt/xchem-fragalysis-2/maxwin/CHIKV_HIPPO/hippo_prod/CHIKV_prod11c_recipes/Recipe_1GJXK8G_poses.sdf', '/opt/xchem-fragalysis-2/maxwin/CHIKV_HIPPO/hippo_prod/CHIKV_prod11c_recipes/Recipe_1GJXW46_poses.sdf']

>  <method>  (283) 
None

>  <submitter_email>  (283) 
None

>  <submitter_name>  (283) 
None

$$$$
RVONYHCTWCRDJF-UHFFFAOYSA-N
     RDKit          3D

 23 26  0  0  0  0  0  0  0  0999 V2000
   17.5861    4.6248   11.7796 O   0  0  0  0  0  0  0  0  0  0  0  0
   16.6935    3.9527   12.3041 C   0  0  0  0  0  0  0  0  0  0  0  0
   15.4063    3.8564   11.8370 N   0  0  0  0  0  0  0  0  0  0  0  0
   14.8226    4.8505   11.0935 C   0  0  0  0  0  0  0  0  0  0  0  0
   13.6798    4.6870   10.4199 N   0  0  0  0  0  0  0  0  0  0  0  0
   13.4006    5.9699    9.9456 O   0  0  0  0  0  0  0  0  0  0  0  0
   14.3948    6.7837   10.4146 C   0  0  0  0  0  0  0  0  0  0  0  0
   14.3782    8.3299   10.2801 C   0  0  0  0  0  0  0  0  0  0  0  0
   13.7460    8.9018    9.0312 C   0  0  0  0  0  0  0  0  0  0  0  0
   15.1990    9.1124    9.3066 C   0  0  0  0  0  0  0  0  0  0  0  0
   15.2920    6.1343   11.1195 N   0  0  0  0  0  0  0  0  0  0  0  0
   17.0224    3.1461   13.5154 C   0  0  0  0  0  0  0  0  0  0  0  0
   18.3623    2.8679   13.7282 C   0  0  0  0  0  0  0  0  0  0  0  0
   18.7418    2.2249   14.8825 C   0  0  0  0  0  0  0  0  0  0  0  0
   17.8678    1.8419   15.8241 N   0  0  0  0  0  0  0  0  0  0  0  0
   16.5577    2.0865   15.6212 C   0  0  0  0  0  0  0  0  0  0  0  0
   15.6433    1.7638   16.6275 N   0  0  0  0  0  0  0  0  0  0  0  0
   16.1627    0.9533   17.7364 C   0  0  0  0  0  0  0  0  0  0  0  0
   15.0986    0.7974   18.8400 C   0  0  0  0  0  0  0  0  0  0  0  0
   15.3486   -0.5823   19.3589 C   0  0  0  0  0  0  0  0  0  0  0  0
   16.1244   -1.2906   18.5327 C   0  0  0  0  0  0  0  0  0  0  0  0
   16.5143   -0.4927   17.3306 C   0  0  0  0  0  0  0  0  0  0  0  0
   16.0987    2.7520   14.4809 C   0  0  0  0  0  0  0  0  0  0  0  0
  1  2  2  0
  2  3  1  0
  3  4  1  0
  4  5  2  0
  5  6  1  0
  6  7  1  0
  7  8  1  0
  8  9  1  0
  9 10  1  0
  7 11  2  0
  2 12  1  0
 12 13  2  0
 13 14  1  0
 14 15  2  0
 15 16  1  0
 16 17  1  0
 17 18  1  0
 18 19  1  0
 19 20  1  0
 20 21  2  0
 21 22  1  0
 16 23  2  0
 11  4  1  0
 23 12  1  0
 10  8  1  0
 22 18  1  0
M  END
>  <HIPPO ID>  (284) 
98837

>  <ref_url>  (284) 
None

>  <ref_pdb>  (284) 
c0300a

>  <inchikey>  (284) 
RVONYHCTWCRDJF-UHFFFAOYSA-N

>  <original SMILES>  (284) 
O=C(Nc1noc(C2CC2)n1)c1ccnc(NC2CC=CC2)c1

>  <generation_date>  (284) 
None

>  <tags>  (284) 
[]

>  <ref_mols>  (284) 
c0316a,c0441a

>  <alias>  (284) 
None

>  <original ID>  (284) 
RVONYHCTWCRDJF-UHFFFAOYSA-N

>  <exports>  (284) 
['/opt/xchem-fragalysis-2/maxwin/CHIKV_HIPPO/hippo_prod/CHIKV_prod11_recipes/Recipe_1G8PPKY_poses.sdf', '/opt/xchem-fragalysis-2/maxwin/CHIKV_HIPPO/hippo_prod/CHIKV_prod11_recipes/Recipe_1GERJCJ_poses.sdf', '/opt/xchem-fragalysis-2/maxwin/CHIKV_HIPPO/hippo_prod/CHIKV_prod11b_recipes/Recipe_1GFD8FK_poses.sdf', '/opt/xchem-fragalysis-2/maxwin/CHIKV_HIPPO/hippo_prod/CHIKV_prod11c_recipes/Recipe_1GJWBFH_poses.sdf', '/opt/xchem-fragalysis-2/maxwin/CHIKV_HIPPO/hippo_prod/CHIKV_prod11c_recipes/Recipe_1GJXK8G_poses.sdf', '/opt/xchem-fragalysis-2/maxwin/CHIKV_HIPPO/hippo_prod/CHIKV_prod11c_recipes/Recipe_1GJXW46_poses.sdf']

>  <method>  (284) 
None

>  <submitter_email>  (284) 
None

>  <submitter_name>  (284) 
None

$$$$
QYWGYJFOJRFRHH-UHFFFAOYSA-N
     RDKit          3D

 23 25  0  0  0  0  0  0  0  0999 V2000
   13.7268    8.3834    8.7939 C   0  0  0  0  0  0  0  0  0  0  0  0
   13.9707    7.7139   10.1258 C   0  0  0  0  0  0  0  0  0  0  0  0
   14.9203    8.5850   10.9093 C   0  0  0  0  0  0  0  0  0  0  0  0
   14.3649    6.2933   10.1413 C   0  0  0  0  0  0  0  0  0  0  0  0
   15.2603    5.7252   10.9098 N   0  0  0  0  0  0  0  0  0  0  0  0
   14.9055    4.4121   10.8652 C   0  0  0  0  0  0  0  0  0  0  0  0
   15.4847    3.5039   11.7161 N   0  0  0  0  0  0  0  0  0  0  0  0
   16.6050    3.8577   12.4323 C   0  0  0  0  0  0  0  0  0  0  0  0
   17.4337    4.6787   12.0399 O   0  0  0  0  0  0  0  0  0  0  0  0
   16.8652    3.2499   13.7570 C   0  0  0  0  0  0  0  0  0  0  0  0
   17.9030    3.7801   14.5203 C   0  0  0  0  0  0  0  0  0  0  0  0
   18.1332    3.2423   15.7679 C   0  0  0  0  0  0  0  0  0  0  0  0
   17.4259    2.2213   16.2892 N   0  0  0  0  0  0  0  0  0  0  0  0
   16.4389    1.6987   15.5564 C   0  0  0  0  0  0  0  0  0  0  0  0
   15.7635    0.5637   15.9658 N   0  0  0  0  0  0  0  0  0  0  0  0
   15.8596   -0.0848   17.2636 C   0  0  0  0  0  0  0  0  0  0  0  0
   15.3985    0.7351   18.4685 C   0  0  0  0  0  0  0  0  0  0  0  0
   16.0841    0.0037   19.5853 C   0  0  0  0  0  0  0  0  0  0  0  0
   17.0774   -0.7725   19.1295 C   0  0  0  0  0  0  0  0  0  0  0  0
   17.2129   -0.6792   17.6374 C   0  0  0  0  0  0  0  0  0  0  0  0
   16.1141    2.2175   14.2991 C   0  0  0  0  0  0  0  0  0  0  0  0
   13.8651    4.1482   10.0720 N   0  0  0  0  0  0  0  0  0  0  0  0
   13.4982    5.4024    9.5846 O   0  0  0  0  0  0  0  0  0  0  0  0
  1  2  1  0
  2  3  1  0
  2  4  1  0
  4  5  2  0
  5  6  1  0
  6  7  1  0
  7  8  1  0
  8  9  2  0
  8 10  1  0
 10 11  2  0
 11 12  1  0
 12 13  2  0
 13 14  1  0
 14 15  1  0
 15 16  1  0
 16 17  1  0
 17 18  1  0
 18 19  2  0
 19 20  1  0
 14 21  2  0
  6 22  2  0
 22 23  1  0
 23  4  1  0
 21 10  1  0
 20 16  1  0
M  END
>  <HIPPO ID>  (285) 
98838

>  <ref_url>  (285) 
None

>  <ref_pdb>  (285) 
c0300a

>  <inchikey>  (285) 
QYWGYJFOJRFRHH-UHFFFAOYSA-N

>  <original SMILES>  (285) 
CC(C)c1nc(NC(=O)c2ccnc(NC3CC=CC3)c2)no1

>  <generation_date>  (285) 
None

>  <tags>  (285) 
[]

>  <ref_mols>  (285) 
c0316a,c0441a

>  <alias>  (285) 
None

>  <original ID>  (285) 
QYWGYJFOJRFRHH-UHFFFAOYSA-N

>  <exports>  (285) 
['/opt/xchem-fragalysis-2/maxwin/CHIKV_HIPPO/hippo_prod/CHIKV_prod11_recipes/Recipe_1G8PPKY_poses.sdf', '/opt/xchem-fragalysis-2/maxwin/CHIKV_HIPPO/hippo_prod/CHIKV_prod11_recipes/Recipe_1GERJCJ_poses.sdf', '/opt/xchem-fragalysis-2/maxwin/CHIKV_HIPPO/hippo_prod/CHIKV_prod11b_recipes/Recipe_1GFD8FK_poses.sdf', '/opt/xchem-fragalysis-2/maxwin/CHIKV_HIPPO/hippo_prod/CHIKV_prod11c_recipes/Recipe_1GJWBFH_poses.sdf', '/opt/xchem-fragalysis-2/maxwin/CHIKV_HIPPO/hippo_prod/CHIKV_prod11c_recipes/Recipe_1GJXK8G_poses.sdf', '/opt/xchem-fragalysis-2/maxwin/CHIKV_HIPPO/hippo_prod/CHIKV_prod11c_recipes/Recipe_1GJXW46_poses.sdf']

>  <method>  (285) 
None

>  <submitter_email>  (285) 
None

>  <submitter_name>  (285) 
None

$$$$
SFDTUZQHZKCPRN-UHFFFAOYSA-N
     RDKit          3D

 24 27  0  0  0  0  0  0  0  0999 V2000
   17.6023    4.6270   11.7745 O   0  0  0  0  0  0  0  0  0  0  0  0
   16.7306    3.9673   12.3491 C   0  0  0  0  0  0  0  0  0  0  0  0
   15.4243    3.8589   11.9271 N   0  0  0  0  0  0  0  0  0  0  0  0
   14.8077    4.8455   11.1987 C   0  0  0  0  0  0  0  0  0  0  0  0
   13.6007    4.7104   10.6392 N   0  0  0  0  0  0  0  0  0  0  0  0
   13.3881    5.9463   10.0224 O   0  0  0  0  0  0  0  0  0  0  0  0
   14.4780    6.7155   10.3164 C   0  0  0  0  0  0  0  0  0  0  0  0
   14.7891    8.0843    9.6751 C   0  0  0  0  0  0  0  0  0  0  0  0
   13.6481    8.7654    8.9074 C   0  0  0  0  0  0  0  0  0  0  0  0
   14.2766   10.0836    9.3654 C   0  0  0  0  0  0  0  0  0  0  0  0
   14.8021    9.3125   10.5762 C   0  0  0  0  0  0  0  0  0  0  0  0
   15.3442    6.0934   11.0839 N   0  0  0  0  0  0  0  0  0  0  0  0
   17.0931    3.2628   13.6189 C   0  0  0  0  0  0  0  0  0  0  0  0
   18.3014    3.6228   14.2057 C   0  0  0  0  0  0  0  0  0  0  0  0
   18.6710    3.0259   15.3915 C   0  0  0  0  0  0  0  0  0  0  0  0
   17.8997    2.1394   16.0431 N   0  0  0  0  0  0  0  0  0  0  0  0
   16.7063    1.8166   15.5092 C   0  0  0  0  0  0  0  0  0  0  0  0
   15.9083    0.8624   16.1395 N   0  0  0  0  0  0  0  0  0  0  0  0
   16.2275    0.5435   17.5328 C   0  0  0  0  0  0  0  0  0  0  0  0
   15.0008   -0.0390   18.2659 C   0  0  0  0  0  0  0  0  0  0  0  0
   15.5939   -1.0795   19.1580 C   0  0  0  0  0  0  0  0  0  0  0  0
   16.8486   -1.3730   18.8062 C   0  0  0  0  0  0  0  0  0  0  0  0
   17.2993   -0.5548   17.6373 C   0  0  0  0  0  0  0  0  0  0  0  0
   16.2831    2.3462   14.2875 C   0  0  0  0  0  0  0  0  0  0  0  0
  1  2  2  0
  2  3  1  0
  3  4  1  0
  4  5  2  0
  5  6  1  0
  6  7  1  0
  7  8  1  0
  8  9  1  0
  9 10  1  0
 10 11  1  0
  7 12  2  0
  2 13  1  0
 13 14  2  0
 14 15  1  0
 15 16  2  0
 16 17  1  0
 17 18  1  0
 18 19  1  0
 19 20  1  0
 20 21  1  0
 21 22  2  0
 22 23  1  0
 17 24  2  0
 12  4  1  0
 24 13  1  0
 11  8  1  0
 23 19  1  0
M  END
>  <HIPPO ID>  (286) 
98841

>  <ref_url>  (286) 
None

>  <ref_pdb>  (286) 
c0300a

>  <inchikey>  (286) 
SFDTUZQHZKCPRN-UHFFFAOYSA-N

>  <original SMILES>  (286) 
O=C(Nc1noc(C2CCC2)n1)c1ccnc(NC2CC=CC2)c1

>  <generation_date>  (286) 
None

>  <tags>  (286) 
[]

>  <ref_mols>  (286) 
c0316a,c0441a

>  <alias>  (286) 
None

>  <original ID>  (286) 
SFDTUZQHZKCPRN-UHFFFAOYSA-N

>  <exports>  (286) 
['/opt/xchem-fragalysis-2/maxwin/CHIKV_HIPPO/hippo_prod/CHIKV_prod11_recipes/Recipe_1G8PPKY_poses.sdf', '/opt/xchem-fragalysis-2/maxwin/CHIKV_HIPPO/hippo_prod/CHIKV_prod11_recipes/Recipe_1GERJCJ_poses.sdf', '/opt/xchem-fragalysis-2/maxwin/CHIKV_HIPPO/hippo_prod/CHIKV_prod11b_recipes/Recipe_1GFD8FK_poses.sdf', '/opt/xchem-fragalysis-2/maxwin/CHIKV_HIPPO/hippo_prod/CHIKV_prod11c_recipes/Recipe_1GJWBFH_poses.sdf', '/opt/xchem-fragalysis-2/maxwin/CHIKV_HIPPO/hippo_prod/CHIKV_prod11c_recipes/Recipe_1GJXK8G_poses.sdf', '/opt/xchem-fragalysis-2/maxwin/CHIKV_HIPPO/hippo_prod/CHIKV_prod11c_recipes/Recipe_1GJXW46_poses.sdf']

>  <method>  (286) 
None

>  <submitter_email>  (286) 
None

>  <submitter_name>  (286) 
None

$$$$
KDAPNLCPIPSDQD-SFHVURJKSA-N
     RDKit          3D

 26 29  0  0  0  0  0  0  0  0999 V2000
   13.6818    7.8631    9.4608 C   0  0  0  0  0  0  0  0  0  0  0  0
   13.8994    7.0712   10.7523 C   0  0  2  0  0  0  0  0  0  0  0  0
   14.6566    5.8491   10.4110 C   0  0  0  0  0  0  0  0  0  0  0  0
   15.6800    5.3708   11.0612 N   0  0  0  0  0  0  0  0  0  0  0  0
   15.4700    4.0439   10.9368 C   0  0  0  0  0  0  0  0  0  0  0  0
   16.0230    3.2269   11.8630 N   0  0  0  0  0  0  0  0  0  0  0  0
   17.1706    3.5742   12.5186 C   0  0  0  0  0  0  0  0  0  0  0  0
   18.0289    4.3459   12.0866 O   0  0  0  0  0  0  0  0  0  0  0  0
   17.3765    2.8807   13.8111 C   0  0  0  0  0  0  0  0  0  0  0  0
   18.6736    2.5463   14.1467 C   0  0  0  0  0  0  0  0  0  0  0  0
   18.9237    1.9686   15.3621 C   0  0  0  0  0  0  0  0  0  0  0  0
   17.9484    1.6773   16.2297 N   0  0  0  0  0  0  0  0  0  0  0  0
   16.6705    1.9538   15.8929 C   0  0  0  0  0  0  0  0  0  0  0  0
   15.6550    1.6765   16.8117 N   0  0  0  0  0  0  0  0  0  0  0  0
   16.0801    0.8654   17.9590 C   0  0  0  0  0  0  0  0  0  0  0  0
   14.9511    0.7372   18.9917 C   0  0  0  0  0  0  0  0  0  0  0  0
   15.1949   -0.6197   19.5691 C   0  0  0  0  0  0  0  0  0  0  0  0
   16.0044   -1.3531   18.7991 C   0  0  0  0  0  0  0  0  0  0  0  0
   16.4354   -0.5906   17.5894 C   0  0  0  0  0  0  0  0  0  0  0  0
   16.3464    2.5852   14.6974 C   0  0  0  0  0  0  0  0  0  0  0  0
   14.5270    3.6895   10.0633 N   0  0  0  0  0  0  0  0  0  0  0  0
   14.0046    4.9157    9.6554 O   0  0  0  0  0  0  0  0  0  0  0  0
   12.7165    6.5143   11.5729 C   0  0  0  0  0  0  0  0  0  0  0  0
   13.0812    6.8048   13.0161 C   0  0  0  0  0  0  0  0  0  0  0  0
   14.0382    7.8545   13.0442 O   0  0  0  0  0  0  0  0  0  0  0  0
   14.6767    7.9239   11.7639 C   0  0  0  0  0  0  0  0  0  0  0  0
  2  1  1  6
  2  3  1  0
  3  4  2  0
  4  5  1  0
  5  6  1  0
  6  7  1  0
  7  8  2  0
  7  9  1  0
  9 10  2  0
 10 11  1  0
 11 12  2  0
 12 13  1  0
 13 14  1  0
 14 15  1  0
 15 16  1  0
 16 17  1  0
 17 18  2  0
 18 19  1  0
 13 20  2  0
  5 21  2  0
 21 22  1  0
  2 23  1  0
 23 24  1  0
 24 25  1  0
 25 26  1  0
 26  2  1  0
 22  3  1  0
 20  9  1  0
 19 15  1  0
M  END
>  <HIPPO ID>  (287) 
98843

>  <ref_url>  (287) 
None

>  <ref_pdb>  (287) 
c0300a

>  <inchikey>  (287) 
KDAPNLCPIPSDQD-SFHVURJKSA-N

>  <original SMILES>  (287) 
C[C@]1(c2nc(NC(=O)c3ccnc(NC4CC=CC4)c3)no2)CCOC1

>  <generation_date>  (287) 
None

>  <tags>  (287) 
[]

>  <ref_mols>  (287) 
c0316a,c0441a

>  <alias>  (287) 
None

>  <original ID>  (287) 
KDAPNLCPIPSDQD-SFHVURJKSA-N

>  <exports>  (287) 
['/opt/xchem-fragalysis-2/maxwin/CHIKV_HIPPO/hippo_prod/CHIKV_prod11_recipes/Recipe_1G8PPKY_poses.sdf', '/opt/xchem-fragalysis-2/maxwin/CHIKV_HIPPO/hippo_prod/CHIKV_prod11_recipes/Recipe_1GERJCJ_poses.sdf', '/opt/xchem-fragalysis-2/maxwin/CHIKV_HIPPO/hippo_prod/CHIKV_prod11b_recipes/Recipe_1GFD8FK_poses.sdf', '/opt/xchem-fragalysis-2/maxwin/CHIKV_HIPPO/hippo_prod/CHIKV_prod11c_recipes/Recipe_1GJWBFH_poses.sdf', '/opt/xchem-fragalysis-2/maxwin/CHIKV_HIPPO/hippo_prod/CHIKV_prod11c_recipes/Recipe_1GJXK8G_poses.sdf', '/opt/xchem-fragalysis-2/maxwin/CHIKV_HIPPO/hippo_prod/CHIKV_prod11c_recipes/Recipe_1GJXW46_poses.sdf']

>  <method>  (287) 
None

>  <submitter_email>  (287) 
None

>  <submitter_name>  (287) 
None

$$$$
KDAPNLCPIPSDQD-GOSISDBHSA-N
     RDKit          3D

 26 29  0  0  0  0  0  0  0  0999 V2000
   13.6969    7.8804    9.4691 C   0  0  0  0  0  0  0  0  0  0  0  0
   13.8846    7.0663   10.7510 C   0  0  1  0  0  0  0  0  0  0  0  0
   14.6046    5.8255   10.4068 C   0  0  0  0  0  0  0  0  0  0  0  0
   15.6478    5.3526   11.0313 N   0  0  0  0  0  0  0  0  0  0  0  0
   15.4275    4.0266   10.9312 C   0  0  0  0  0  0  0  0  0  0  0  0
   15.9970    3.2175   11.8549 N   0  0  0  0  0  0  0  0  0  0  0  0
   17.1431    3.5761   12.5072 C   0  0  0  0  0  0  0  0  0  0  0  0
   17.9942    4.3566   12.0767 O   0  0  0  0  0  0  0  0  0  0  0  0
   17.3575    2.8863   13.8005 C   0  0  0  0  0  0  0  0  0  0  0  0
   18.6579    2.5598   14.1312 C   0  0  0  0  0  0  0  0  0  0  0  0
   18.9158    1.9835   15.3458 C   0  0  0  0  0  0  0  0  0  0  0  0
   17.9456    1.6881   16.2180 N   0  0  0  0  0  0  0  0  0  0  0  0
   16.6649    1.9584   15.8865 C   0  0  0  0  0  0  0  0  0  0  0  0
   15.6546    1.6787   16.8099 N   0  0  0  0  0  0  0  0  0  0  0  0
   16.0840    0.8664   17.9545 C   0  0  0  0  0  0  0  0  0  0  0  0
   14.9578    0.7348   18.9901 C   0  0  0  0  0  0  0  0  0  0  0  0
   15.2037   -0.6235   19.5635 C   0  0  0  0  0  0  0  0  0  0  0  0
   16.0124   -1.3541   18.7901 C   0  0  0  0  0  0  0  0  0  0  0  0
   16.4404   -0.5883   17.5813 C   0  0  0  0  0  0  0  0  0  0  0  0
   16.3327    2.5872   14.6917 C   0  0  0  0  0  0  0  0  0  0  0  0
   14.4575    3.6671   10.0900 N   0  0  0  0  0  0  0  0  0  0  0  0
   13.9196    4.8892    9.6908 O   0  0  0  0  0  0  0  0  0  0  0  0
   14.6788    7.8741   11.7728 C   0  0  0  0  0  0  0  0  0  0  0  0
   14.1433    7.4558   13.1184 C   0  0  0  0  0  0  0  0  0  0  0  0
   12.7728    7.1041   12.9081 O   0  0  0  0  0  0  0  0  0  0  0  0
   12.6761    6.5558   11.5784 C   0  0  0  0  0  0  0  0  0  0  0  0
  2  1  1  6
  2  3  1  0
  3  4  2  0
  4  5  1  0
  5  6  1  0
  6  7  1  0
  7  8  2  0
  7  9  1  0
  9 10  2  0
 10 11  1  0
 11 12  2  0
 12 13  1  0
 13 14  1  0
 14 15  1  0
 15 16  1  0
 16 17  1  0
 17 18  2  0
 18 19  1  0
 13 20  2  0
  5 21  2  0
 21 22  1  0
  2 23  1  0
 23 24  1  0
 24 25  1  0
 25 26  1  0
 26  2  1  0
 22  3  1  0
 20  9  1  0
 19 15  1  0
M  END
>  <HIPPO ID>  (288) 
98844

>  <ref_url>  (288) 
None

>  <ref_pdb>  (288) 
c0300a

>  <inchikey>  (288) 
KDAPNLCPIPSDQD-GOSISDBHSA-N

>  <original SMILES>  (288) 
C[C@@]1(c2nc(NC(=O)c3ccnc(NC4CC=CC4)c3)no2)CCOC1

>  <generation_date>  (288) 
None

>  <tags>  (288) 
[]

>  <ref_mols>  (288) 
c0316a,c0441a

>  <alias>  (288) 
None

>  <original ID>  (288) 
KDAPNLCPIPSDQD-GOSISDBHSA-N

>  <exports>  (288) 
['/opt/xchem-fragalysis-2/maxwin/CHIKV_HIPPO/hippo_prod/CHIKV_prod11_recipes/Recipe_1G8PPKY_poses.sdf', '/opt/xchem-fragalysis-2/maxwin/CHIKV_HIPPO/hippo_prod/CHIKV_prod11_recipes/Recipe_1GERJCJ_poses.sdf', '/opt/xchem-fragalysis-2/maxwin/CHIKV_HIPPO/hippo_prod/CHIKV_prod11b_recipes/Recipe_1GFD8FK_poses.sdf', '/opt/xchem-fragalysis-2/maxwin/CHIKV_HIPPO/hippo_prod/CHIKV_prod11c_recipes/Recipe_1GJWBFH_poses.sdf', '/opt/xchem-fragalysis-2/maxwin/CHIKV_HIPPO/hippo_prod/CHIKV_prod11c_recipes/Recipe_1GJXK8G_poses.sdf', '/opt/xchem-fragalysis-2/maxwin/CHIKV_HIPPO/hippo_prod/CHIKV_prod11c_recipes/Recipe_1GJXW46_poses.sdf']

>  <method>  (288) 
None

>  <submitter_email>  (288) 
None

>  <submitter_name>  (288) 
None

$$$$
LRNNKMIDGWTQJR-GOSISDBHSA-N
     RDKit          3D

 27 30  0  0  0  0  0  0  0  0999 V2000
   14.0377    8.7421    9.1283 C   0  0  0  0  0  0  0  0  0  0  0  0
   13.2302    7.7756    9.7846 O   0  0  0  0  0  0  0  0  0  0  0  0
   13.7896    7.1153   10.9192 C   0  0  2  0  0  0  0  0  0  0  0  0
   14.5491    5.9433   10.4315 C   0  0  0  0  0  0  0  0  0  0  0  0
   15.6070    5.4377   11.0104 N   0  0  0  0  0  0  0  0  0  0  0  0
   15.3757    4.1141   10.8721 C   0  0  0  0  0  0  0  0  0  0  0  0
   15.9424    3.2710   11.7722 N   0  0  0  0  0  0  0  0  0  0  0  0
   17.0897    3.6101   12.4369 C   0  0  0  0  0  0  0  0  0  0  0  0
   17.9445    4.3922   12.0144 O   0  0  0  0  0  0  0  0  0  0  0  0
   17.3062    2.9099   13.7266 C   0  0  0  0  0  0  0  0  0  0  0  0
   18.6122    2.6035   14.0557 C   0  0  0  0  0  0  0  0  0  0  0  0
   18.8857    2.0308   15.2693 C   0  0  0  0  0  0  0  0  0  0  0  0
   17.9252    1.7251   16.1481 N   0  0  0  0  0  0  0  0  0  0  0  0
   16.6399    1.9788   15.8230 C   0  0  0  0  0  0  0  0  0  0  0  0
   15.6419    1.6975   16.7594 N   0  0  0  0  0  0  0  0  0  0  0  0
   16.0849    0.8956   17.9077 C   0  0  0  0  0  0  0  0  0  0  0  0
   14.9625    0.7590   18.9486 C   0  0  0  0  0  0  0  0  0  0  0  0
   15.2101   -0.5998   19.5201 C   0  0  0  0  0  0  0  0  0  0  0  0
   16.0238   -1.3261   18.7478 C   0  0  0  0  0  0  0  0  0  0  0  0
   16.4530   -0.5579   17.5409 C   0  0  0  0  0  0  0  0  0  0  0  0
   16.2913    2.5967   14.6244 C   0  0  0  0  0  0  0  0  0  0  0  0
   14.3949    3.7928   10.0277 N   0  0  0  0  0  0  0  0  0  0  0  0
   13.8571    5.0347    9.6822 O   0  0  0  0  0  0  0  0  0  0  0  0
   12.7171    6.4963   11.8585 C   0  0  0  0  0  0  0  0  0  0  0  0
   13.3058    6.6527   13.2435 C   0  0  0  0  0  0  0  0  0  0  0  0
   14.0993    7.8322   13.2252 O   0  0  0  0  0  0  0  0  0  0  0  0
   14.6287    7.9704   11.8897 C   0  0  0  0  0  0  0  0  0  0  0  0
  1  2  1  0
  3  2  1  6
  3  4  1  0
  4  5  2  0
  5  6  1  0
  6  7  1  0
  7  8  1  0
  8  9  2  0
  8 10  1  0
 10 11  2  0
 11 12  1  0
 12 13  2  0
 13 14  1  0
 14 15  1  0
 15 16  1  0
 16 17  1  0
 17 18  1  0
 18 19  2  0
 19 20  1  0
 14 21  2  0
  6 22  2  0
 22 23  1  0
  3 24  1  0
 24 25  1  0
 25 26  1  0
 26 27  1  0
 27  3  1  0
 23  4  1  0
 21 10  1  0
 20 16  1  0
M  END
>  <HIPPO ID>  (289) 
98845

>  <ref_url>  (289) 
None

>  <ref_pdb>  (289) 
c0300a

>  <inchikey>  (289) 
LRNNKMIDGWTQJR-GOSISDBHSA-N

>  <original SMILES>  (289) 
CO[C@]1(c2nc(NC(=O)c3ccnc(NC4CC=CC4)c3)no2)CCOC1

>  <generation_date>  (289) 
None

>  <tags>  (289) 
[]

>  <ref_mols>  (289) 
c0316a,c0441a

>  <alias>  (289) 
None

>  <original ID>  (289) 
LRNNKMIDGWTQJR-GOSISDBHSA-N

>  <exports>  (289) 
['/opt/xchem-fragalysis-2/maxwin/CHIKV_HIPPO/hippo_prod/CHIKV_prod11_recipes/Recipe_1G8PPKY_poses.sdf', '/opt/xchem-fragalysis-2/maxwin/CHIKV_HIPPO/hippo_prod/CHIKV_prod11_recipes/Recipe_1GERJCJ_poses.sdf', '/opt/xchem-fragalysis-2/maxwin/CHIKV_HIPPO/hippo_prod/CHIKV_prod11b_recipes/Recipe_1GFD8FK_poses.sdf', '/opt/xchem-fragalysis-2/maxwin/CHIKV_HIPPO/hippo_prod/CHIKV_prod11c_recipes/Recipe_1GJWBFH_poses.sdf', '/opt/xchem-fragalysis-2/maxwin/CHIKV_HIPPO/hippo_prod/CHIKV_prod11c_recipes/Recipe_1GJXK8G_poses.sdf', '/opt/xchem-fragalysis-2/maxwin/CHIKV_HIPPO/hippo_prod/CHIKV_prod11c_recipes/Recipe_1GJXW46_poses.sdf']

>  <method>  (289) 
None

>  <submitter_email>  (289) 
None

>  <submitter_name>  (289) 
None

$$$$
LRNNKMIDGWTQJR-SFHVURJKSA-N
     RDKit          3D

 27 30  0  0  0  0  0  0  0  0999 V2000
   11.7523    6.1360   11.4409 C   0  0  0  0  0  0  0  0  0  0  0  0
   12.8514    6.9853   11.6903 O   0  0  0  0  0  0  0  0  0  0  0  0
   13.8572    7.2445   10.6943 C   0  0  1  0  0  0  0  0  0  0  0  0
   14.5256    5.9521   10.4552 C   0  0  0  0  0  0  0  0  0  0  0  0
   15.5155    5.4436   11.1381 N   0  0  0  0  0  0  0  0  0  0  0  0
   15.3213    4.1214   10.9556 C   0  0  0  0  0  0  0  0  0  0  0  0
   15.9045    3.2668   11.8308 N   0  0  0  0  0  0  0  0  0  0  0  0
   17.0654    3.6033   12.4724 C   0  0  0  0  0  0  0  0  0  0  0  0
   17.9169    4.3784   12.0308 O   0  0  0  0  0  0  0  0  0  0  0  0
   17.3001    2.9016   13.7562 C   0  0  0  0  0  0  0  0  0  0  0  0
   18.6094    2.5994   14.0751 C   0  0  0  0  0  0  0  0  0  0  0  0
   18.8894    2.0193   15.2838 C   0  0  0  0  0  0  0  0  0  0  0  0
   17.9336    1.7029   16.1654 N   0  0  0  0  0  0  0  0  0  0  0  0
   16.6461    1.9584   15.8497 C   0  0  0  0  0  0  0  0  0  0  0  0
   15.6510    1.6723   16.7876 N   0  0  0  0  0  0  0  0  0  0  0  0
   16.0969    0.8668   17.9304 C   0  0  0  0  0  0  0  0  0  0  0  0
   14.9794    0.7310   18.9760 C   0  0  0  0  0  0  0  0  0  0  0  0
   15.2286   -0.6288   19.5444 C   0  0  0  0  0  0  0  0  0  0  0  0
   16.0361   -1.3556   18.7660 C   0  0  0  0  0  0  0  0  0  0  0  0
   16.4588   -0.5864   17.5574 C   0  0  0  0  0  0  0  0  0  0  0  0
   16.2909    2.5831   14.6581 C   0  0  0  0  0  0  0  0  0  0  0  0
   14.3889    3.7997   10.0577 N   0  0  0  0  0  0  0  0  0  0  0  0
   13.8913    5.0412    9.6651 O   0  0  0  0  0  0  0  0  0  0  0  0
   13.5552    7.9990    9.4052 C   0  0  0  0  0  0  0  0  0  0  0  0
   14.7400    8.9281    9.2383 C   0  0  0  0  0  0  0  0  0  0  0  0
   15.0790    9.3245   10.5589 O   0  0  0  0  0  0  0  0  0  0  0  0
   14.8122    8.2052   11.4095 C   0  0  0  0  0  0  0  0  0  0  0  0
  1  2  1  0
  3  2  1  1
  3  4  1  0
  4  5  2  0
  5  6  1  0
  6  7  1  0
  7  8  1  0
  8  9  2  0
  8 10  1  0
 10 11  2  0
 11 12  1  0
 12 13  2  0
 13 14  1  0
 14 15  1  0
 15 16  1  0
 16 17  1  0
 17 18  1  0
 18 19  2  0
 19 20  1  0
 14 21  2  0
  6 22  2  0
 22 23  1  0
  3 24  1  0
 24 25  1  0
 25 26  1  0
 26 27  1  0
 27  3  1  0
 23  4  1  0
 21 10  1  0
 20 16  1  0
M  END
>  <HIPPO ID>  (290) 
98846

>  <ref_url>  (290) 
None

>  <ref_pdb>  (290) 
c0300a

>  <inchikey>  (290) 
LRNNKMIDGWTQJR-SFHVURJKSA-N

>  <original SMILES>  (290) 
CO[C@@]1(c2nc(NC(=O)c3ccnc(NC4CC=CC4)c3)no2)CCOC1

>  <generation_date>  (290) 
None

>  <tags>  (290) 
[]

>  <ref_mols>  (290) 
c0316a,c0441a

>  <alias>  (290) 
None

>  <original ID>  (290) 
LRNNKMIDGWTQJR-SFHVURJKSA-N

>  <exports>  (290) 
['/opt/xchem-fragalysis-2/maxwin/CHIKV_HIPPO/hippo_prod/CHIKV_prod11_recipes/Recipe_1G8PPKY_poses.sdf', '/opt/xchem-fragalysis-2/maxwin/CHIKV_HIPPO/hippo_prod/CHIKV_prod11_recipes/Recipe_1GERJCJ_poses.sdf', '/opt/xchem-fragalysis-2/maxwin/CHIKV_HIPPO/hippo_prod/CHIKV_prod11b_recipes/Recipe_1GFD8FK_poses.sdf', '/opt/xchem-fragalysis-2/maxwin/CHIKV_HIPPO/hippo_prod/CHIKV_prod11c_recipes/Recipe_1GJWBFH_poses.sdf', '/opt/xchem-fragalysis-2/maxwin/CHIKV_HIPPO/hippo_prod/CHIKV_prod11c_recipes/Recipe_1GJXK8G_poses.sdf', '/opt/xchem-fragalysis-2/maxwin/CHIKV_HIPPO/hippo_prod/CHIKV_prod11c_recipes/Recipe_1GJXW46_poses.sdf']

>  <method>  (290) 
None

>  <submitter_email>  (290) 
None

>  <submitter_name>  (290) 
None

$$$$
CPSNXGOJRPNXRM-LLVKDONJSA-N
     RDKit          3D

 22 24  0  0  0  0  0  0  0  0999 V2000
   15.0335    0.8302   18.5725 C   0  0  0  0  0  0  0  0  0  0  0  0
   15.9464   -0.3463   18.3833 C   0  0  0  0  0  0  0  0  0  0  0  0
   15.6670   -1.5069   19.1126 C   0  0  0  0  0  0  0  0  0  0  0  0
   16.5363   -2.5775   19.0456 C   0  0  0  0  0  0  0  0  0  0  0  0
   17.6529   -2.5833   18.2932 N   0  0  0  0  0  0  0  0  0  0  0  0
   17.9200   -1.4624   17.5669 C   0  0  0  0  0  0  0  0  0  0  0  0
   19.1359   -1.5925   16.6894 C   0  0  0  0  0  0  0  0  0  0  0  0
   19.8450   -0.3693   16.4922 O   0  0  0  0  0  0  0  0  0  0  0  0
   17.0878   -0.3269   17.5617 C   0  0  0  0  0  0  0  0  0  0  0  0
   17.4698    0.8473   16.8545 N   0  0  0  0  0  0  0  0  0  0  0  0
   16.6557    1.4176   15.8865 C   0  0  0  0  0  0  0  0  0  0  0  0
   15.7483    0.8175   15.3309 O   0  0  0  0  0  0  0  0  0  0  0  0
   16.9884    2.8780   15.6189 C   0  0  2  0  0  0  0  0  0  0  0  0
   15.8864    3.7716   16.2232 C   0  0  0  0  0  0  0  0  0  0  0  0
   14.8287    3.9602   15.1251 C   0  0  0  0  0  0  0  0  0  0  0  0
   15.6533    3.8842   13.9022 C   0  0  0  0  0  0  0  0  0  0  0  0
   15.3365    4.3256   12.6354 C   0  0  0  0  0  0  0  0  0  0  0  0
   16.3467    4.2877   11.6991 C   0  0  0  0  0  0  0  0  0  0  0  0
   17.5775    3.8142   12.1170 C   0  0  0  0  0  0  0  0  0  0  0  0
   18.6433    3.8683   11.2978 O   0  0  0  0  0  0  0  0  0  0  0  0
   17.9008    3.3010   13.3124 N   0  0  0  0  0  0  0  0  0  0  0  0
   16.8879    3.3048   14.1789 C   0  0  0  0  0  0  0  0  0  0  0  0
  1  2  1  0
  2  3  2  0
  3  4  1  0
  4  5  2  0
  5  6  1  0
  6  7  1  0
  7  8  1  0
  6  9  2  0
  9 10  1  0
 10 11  1  0
 11 12  2  0
 13 11  1  6
 13 14  1  0
 14 15  1  0
 15 16  1  0
 16 17  2  0
 17 18  1  0
 18 19  2  0
 19 20  1  0
 19 21  1  0
 21 22  2  0
  9  2  1  0
 22 13  1  0
 22 16  1  0
M  END
>  <HIPPO ID>  (291) 
99616

>  <ref_url>  (291) 
None

>  <ref_pdb>  (291) 
c0300a

>  <inchikey>  (291) 
CPSNXGOJRPNXRM-LLVKDONJSA-N

>  <original SMILES>  (291) 
Cc1ccnc(CO)c1NC(=O)[C@@H]1CCc2ccc(O)nc21

>  <generation_date>  (291) 
None

>  <tags>  (291) 
[]

>  <ref_mols>  (291) 
c0305a,c1118a

>  <alias>  (291) 
None

>  <original ID>  (291) 
CPSNXGOJRPNXRM-LLVKDONJSA-N

>  <exports>  (291) 
['/opt/xchem-fragalysis-2/maxwin/CHIKV_HIPPO/hippo_prod/CHIKV_prod11c_recipes/Recipe_1GJWBFH_poses.sdf', '/opt/xchem-fragalysis-2/maxwin/CHIKV_HIPPO/hippo_prod/CHIKV_prod11c_recipes/Recipe_1GJXK8G_poses.sdf', '/opt/xchem-fragalysis-2/maxwin/CHIKV_HIPPO/hippo_prod/CHIKV_prod11c_recipes/Recipe_1GJXW46_poses.sdf']

>  <method>  (291) 
None

>  <submitter_email>  (291) 
None

>  <submitter_name>  (291) 
None

$$$$
CPSNXGOJRPNXRM-NSHDSACASA-N
     RDKit          3D

 22 24  0  0  0  0  0  0  0  0999 V2000
   14.9696    0.5763   18.7804 C   0  0  0  0  0  0  0  0  0  0  0  0
   16.0462   -0.4485   18.5503 C   0  0  0  0  0  0  0  0  0  0  0  0
   15.9278   -1.6850   19.1911 C   0  0  0  0  0  0  0  0  0  0  0  0
   16.8872   -2.6551   18.9723 C   0  0  0  0  0  0  0  0  0  0  0  0
   17.9485   -2.4883   18.1554 N   0  0  0  0  0  0  0  0  0  0  0  0
   18.0542   -1.2842   17.5159 C   0  0  0  0  0  0  0  0  0  0  0  0
   19.2112   -1.1902   16.5607 C   0  0  0  0  0  0  0  0  0  0  0  0
   19.4520   -2.4474   15.9172 O   0  0  0  0  0  0  0  0  0  0  0  0
   17.1369   -0.2373   17.6837 C   0  0  0  0  0  0  0  0  0  0  0  0
   17.2168    0.9813   16.9403 N   0  0  0  0  0  0  0  0  0  0  0  0
   16.3158    1.0833   15.8937 C   0  0  0  0  0  0  0  0  0  0  0  0
   15.7257    0.0919   15.4685 O   0  0  0  0  0  0  0  0  0  0  0  0
   15.9648    2.4479   15.4105 C   0  0  1  0  0  0  0  0  0  0  0  0
   15.8556    3.5391   16.4630 C   0  0  0  0  0  0  0  0  0  0  0  0
   15.3037    4.7285   15.6650 C   0  0  0  0  0  0  0  0  0  0  0  0
   15.9306    4.4927   14.3375 C   0  0  0  0  0  0  0  0  0  0  0  0
   15.8715    5.2987   13.2282 C   0  0  0  0  0  0  0  0  0  0  0  0
   16.6135    4.8987   12.1441 C   0  0  0  0  0  0  0  0  0  0  0  0
   17.4202    3.7858   12.3006 C   0  0  0  0  0  0  0  0  0  0  0  0
   18.4122    3.5769   11.4068 O   0  0  0  0  0  0  0  0  0  0  0  0
   17.4126    2.9075   13.3222 N   0  0  0  0  0  0  0  0  0  0  0  0
   16.5770    3.2505   14.2960 C   0  0  0  0  0  0  0  0  0  0  0  0
  1  2  1  0
  2  3  2  0
  3  4  1  0
  4  5  2  0
  5  6  1  0
  6  7  1  0
  7  8  1  0
  6  9  2  0
  9 10  1  0
 10 11  1  0
 11 12  2  0
 13 11  1  1
 13 14  1  0
 14 15  1  0
 15 16  1  0
 16 17  2  0
 17 18  1  0
 18 19  2  0
 19 20  1  0
 19 21  1  0
 21 22  2  0
  9  2  1  0
 22 13  1  0
 22 16  1  0
M  END
>  <HIPPO ID>  (292) 
99617

>  <ref_url>  (292) 
None

>  <ref_pdb>  (292) 
c0300a

>  <inchikey>  (292) 
CPSNXGOJRPNXRM-NSHDSACASA-N

>  <original SMILES>  (292) 
Cc1ccnc(CO)c1NC(=O)[C@H]1CCc2ccc(O)nc21

>  <generation_date>  (292) 
None

>  <tags>  (292) 
[]

>  <ref_mols>  (292) 
c0305a,c1118a

>  <alias>  (292) 
None

>  <original ID>  (292) 
CPSNXGOJRPNXRM-NSHDSACASA-N

>  <exports>  (292) 
['/opt/xchem-fragalysis-2/maxwin/CHIKV_HIPPO/hippo_prod/CHIKV_prod11c_recipes/Recipe_1GJWBFH_poses.sdf', '/opt/xchem-fragalysis-2/maxwin/CHIKV_HIPPO/hippo_prod/CHIKV_prod11c_recipes/Recipe_1GJXK8G_poses.sdf', '/opt/xchem-fragalysis-2/maxwin/CHIKV_HIPPO/hippo_prod/CHIKV_prod11c_recipes/Recipe_1GJXW46_poses.sdf']

>  <method>  (292) 
None

>  <submitter_email>  (292) 
None

>  <submitter_name>  (292) 
None

$$$$
HGBAJEMUEKUJKI-GFCCVEGCSA-N
     RDKit          3D

 23 25  0  0  0  0  0  0  0  0999 V2000
   17.0246   -3.7103   19.7114 C   0  0  0  0  0  0  0  0  0  0  0  0
   17.0414   -2.4554   18.8890 C   0  0  0  0  0  0  0  0  0  0  0  0
   18.0344   -2.3876   17.9825 N   0  0  0  0  0  0  0  0  0  0  0  0
   18.1374   -1.2373   17.2939 C   0  0  0  0  0  0  0  0  0  0  0  0
   19.5407   -1.2137   16.3025 Cl  0  0  0  0  0  0  0  0  0  0  0  0
   17.2577   -0.1554   17.3650 C   0  0  0  0  0  0  0  0  0  0  0  0
   17.5591    1.0593   16.6966 N   0  0  0  0  0  0  0  0  0  0  0  0
   16.6817    1.6128   15.7823 C   0  0  0  0  0  0  0  0  0  0  0  0
   15.7758    0.9888   15.2504 O   0  0  0  0  0  0  0  0  0  0  0  0
   16.9419    3.0891   15.5473 C   0  0  2  0  0  0  0  0  0  0  0  0
   15.7892    3.9421   16.1073 C   0  0  0  0  0  0  0  0  0  0  0  0
   14.7453    4.0521   14.9840 C   0  0  0  0  0  0  0  0  0  0  0  0
   15.6007    3.9759   13.7799 C   0  0  0  0  0  0  0  0  0  0  0  0
   15.2957    4.3236   12.4836 C   0  0  0  0  0  0  0  0  0  0  0  0
   16.3277    4.2598   11.5697 C   0  0  0  0  0  0  0  0  0  0  0  0
   17.5685    3.8575   12.0351 C   0  0  0  0  0  0  0  0  0  0  0  0
   18.6505    3.8804   11.2403 O   0  0  0  0  0  0  0  0  0  0  0  0
   17.8873    3.4406   13.2634 N   0  0  0  0  0  0  0  0  0  0  0  0
   16.8573    3.4748   14.1039 C   0  0  0  0  0  0  0  0  0  0  0  0
   16.1796   -0.2616   18.2530 C   0  0  0  0  0  0  0  0  0  0  0  0
   15.1726    0.8434   18.4626 C   0  0  0  0  0  0  0  0  0  0  0  0
   16.1340   -1.4016   19.0906 C   0  0  0  0  0  0  0  0  0  0  0  0
   15.1208   -1.4655   20.1863 C   0  0  0  0  0  0  0  0  0  0  0  0
  1  2  1  0
  2  3  2  0
  3  4  1  0
  4  5  1  0
  4  6  2  0
  6  7  1  0
  7  8  1  0
  8  9  2  0
 10  8  1  6
 10 11  1  0
 11 12  1  0
 12 13  1  0
 13 14  2  0
 14 15  1  0
 15 16  2  0
 16 17  1  0
 16 18  1  0
 18 19  2  0
  6 20  1  0
 20 21  1  0
 20 22  2  0
 22 23  1  0
 22  2  1  0
 19 10  1  0
 19 13  1  0
M  END
>  <HIPPO ID>  (293) 
100133

>  <ref_url>  (293) 
None

>  <ref_pdb>  (293) 
c0300a

>  <inchikey>  (293) 
HGBAJEMUEKUJKI-GFCCVEGCSA-N

>  <original SMILES>  (293) 
Cc1nc(Cl)c(NC(=O)[C@@H]2CCc3ccc(O)nc32)c(C)c1C

>  <generation_date>  (293) 
None

>  <tags>  (293) 
[]

>  <ref_mols>  (293) 
c0305a,c1118a

>  <alias>  (293) 
None

>  <original ID>  (293) 
HGBAJEMUEKUJKI-GFCCVEGCSA-N

>  <exports>  (293) 
['/opt/xchem-fragalysis-2/maxwin/CHIKV_HIPPO/hippo_prod/CHIKV_prod11c_recipes/Recipe_1GJWBFH_poses.sdf', '/opt/xchem-fragalysis-2/maxwin/CHIKV_HIPPO/hippo_prod/CHIKV_prod11c_recipes/Recipe_1GJXK8G_poses.sdf', '/opt/xchem-fragalysis-2/maxwin/CHIKV_HIPPO/hippo_prod/CHIKV_prod11c_recipes/Recipe_1GJXW46_poses.sdf']

>  <method>  (293) 
None

>  <submitter_email>  (293) 
None

>  <submitter_name>  (293) 
None

$$$$
HGBAJEMUEKUJKI-LBPRGKRZSA-N
     RDKit          3D

 23 25  0  0  0  0  0  0  0  0999 V2000
   17.0494   -3.7840   20.0542 C   0  0  0  0  0  0  0  0  0  0  0  0
   17.1181   -2.5762   19.1711 C   0  0  0  0  0  0  0  0  0  0  0  0
   18.0615   -2.6487   18.2178 N   0  0  0  0  0  0  0  0  0  0  0  0
   18.1612   -1.5910   17.4035 C   0  0  0  0  0  0  0  0  0  0  0  0
   19.4632   -1.7798   16.2841 Cl  0  0  0  0  0  0  0  0  0  0  0  0
   17.3371   -0.4558   17.3986 C   0  0  0  0  0  0  0  0  0  0  0  0
   17.5880    0.4838   16.3812 N   0  0  0  0  0  0  0  0  0  0  0  0
   17.1183    1.7615   16.1960 C   0  0  0  0  0  0  0  0  0  0  0  0
   16.7051    2.5140   17.0632 O   0  0  0  0  0  0  0  0  0  0  0  0
   17.0311    2.0614   14.7326 C   0  0  1  0  0  0  0  0  0  0  0  0
   15.5735    1.8541   14.3768 C   0  0  0  0  0  0  0  0  0  0  0  0
   14.8946    3.1694   14.7517 C   0  0  0  0  0  0  0  0  0  0  0  0
   15.9013    4.0537   14.1179 C   0  0  0  0  0  0  0  0  0  0  0  0
   15.6157    5.0058   13.1648 C   0  0  0  0  0  0  0  0  0  0  0  0
   16.5931    5.2137   12.2213 C   0  0  0  0  0  0  0  0  0  0  0  0
   17.7819    4.5116   12.3650 C   0  0  0  0  0  0  0  0  0  0  0  0
   18.6577    4.4296   11.3469 O   0  0  0  0  0  0  0  0  0  0  0  0
   18.1450    3.6977   13.3471 N   0  0  0  0  0  0  0  0  0  0  0  0
   17.1636    3.4522   14.2091 C   0  0  0  0  0  0  0  0  0  0  0  0
   16.3020   -0.4272   18.3365 C   0  0  0  0  0  0  0  0  0  0  0  0
   15.2229    0.6270   18.3694 C   0  0  0  0  0  0  0  0  0  0  0  0
   16.2528   -1.4752   19.2919 C   0  0  0  0  0  0  0  0  0  0  0  0
   15.2292   -1.4167   20.3781 C   0  0  0  0  0  0  0  0  0  0  0  0
  1  2  1  0
  2  3  2  0
  3  4  1  0
  4  5  1  0
  4  6  2  0
  6  7  1  0
  7  8  1  0
  8  9  2  0
 10  8  1  1
 10 11  1  0
 11 12  1  0
 12 13  1  0
 13 14  2  0
 14 15  1  0
 15 16  2  0
 16 17  1  0
 16 18  1  0
 18 19  2  0
  6 20  1  0
 20 21  1  0
 20 22  2  0
 22 23  1  0
 22  2  1  0
 19 10  1  0
 19 13  1  0
M  END
>  <HIPPO ID>  (294) 
100134

>  <ref_url>  (294) 
None

>  <ref_pdb>  (294) 
c0300a

>  <inchikey>  (294) 
HGBAJEMUEKUJKI-LBPRGKRZSA-N

>  <original SMILES>  (294) 
Cc1nc(Cl)c(NC(=O)[C@H]2CCc3ccc(O)nc32)c(C)c1C

>  <generation_date>  (294) 
None

>  <tags>  (294) 
[]

>  <ref_mols>  (294) 
c0305a,c1118a

>  <alias>  (294) 
None

>  <original ID>  (294) 
HGBAJEMUEKUJKI-LBPRGKRZSA-N

>  <exports>  (294) 
['/opt/xchem-fragalysis-2/maxwin/CHIKV_HIPPO/hippo_prod/CHIKV_prod11c_recipes/Recipe_1GJWBFH_poses.sdf', '/opt/xchem-fragalysis-2/maxwin/CHIKV_HIPPO/hippo_prod/CHIKV_prod11c_recipes/Recipe_1GJXK8G_poses.sdf', '/opt/xchem-fragalysis-2/maxwin/CHIKV_HIPPO/hippo_prod/CHIKV_prod11c_recipes/Recipe_1GJXW46_poses.sdf']

>  <method>  (294) 
None

>  <submitter_email>  (294) 
None

>  <submitter_name>  (294) 
None

$$$$
PDIJYLSBCDCRNG-MRVPVSSYSA-N
     RDKit          3D

 23 25  0  0  0  0  0  0  0  0999 V2000
   15.1223    2.0442   19.2692 O   0  0  0  0  0  0  0  0  0  0  0  0
   14.8302    0.8569   19.2902 C   0  0  0  0  0  0  0  0  0  0  0  0
   13.7131    0.3847   19.8586 O   0  0  0  0  0  0  0  0  0  0  0  0
   15.7119   -0.1971   18.7394 C   0  0  0  0  0  0  0  0  0  0  0  0
   15.7905   -1.4626   19.3214 C   0  0  0  0  0  0  0  0  0  0  0  0
   16.6805   -2.3725   18.7707 C   0  0  0  0  0  0  0  0  0  0  0  0
   17.0247   -4.0015   19.6788 Br  0  0  0  0  0  0  0  0  0  0  0  0
   17.4142   -2.1339   17.6592 N   0  0  0  0  0  0  0  0  0  0  0  0
   17.3124   -0.8974   17.1214 C   0  0  0  0  0  0  0  0  0  0  0  0
   16.5256    0.1156   17.6508 C   0  0  0  0  0  0  0  0  0  0  0  0
   16.6476    1.4455   17.1952 N   0  0  0  0  0  0  0  0  0  0  0  0
   16.4600    1.7763   15.8695 C   0  0  0  0  0  0  0  0  0  0  0  0
   16.0735    0.9709   15.0365 O   0  0  0  0  0  0  0  0  0  0  0  0
   16.7255    3.2459   15.5870 C   0  0  2  0  0  0  0  0  0  0  0  0
   15.5596    4.1303   16.0521 C   0  0  0  0  0  0  0  0  0  0  0  0
   14.5626    4.1631   14.8816 C   0  0  0  0  0  0  0  0  0  0  0  0
   15.4737    4.0497   13.7210 C   0  0  0  0  0  0  0  0  0  0  0  0
   15.2233    4.3330   12.3973 C   0  0  0  0  0  0  0  0  0  0  0  0
   16.2929    4.2306   11.5302 C   0  0  0  0  0  0  0  0  0  0  0  0
   17.5171    3.8616   12.0633 C   0  0  0  0  0  0  0  0  0  0  0  0
   18.6233    3.8336   11.2988 O   0  0  0  0  0  0  0  0  0  0  0  0
   17.7864    3.5168   13.3265 N   0  0  0  0  0  0  0  0  0  0  0  0
   16.7207    3.5808   14.1231 C   0  0  0  0  0  0  0  0  0  0  0  0
  1  2  2  0
  2  3  1  0
  2  4  1  0
  4  5  2  0
  5  6  1  0
  6  7  1  0
  6  8  2  0
  8  9  1  0
  9 10  2  0
 10 11  1  0
 11 12  1  0
 12 13  2  0
 14 12  1  6
 14 15  1  0
 15 16  1  0
 16 17  1  0
 17 18  2  0
 18 19  1  0
 19 20  2  0
 20 21  1  0
 20 22  1  0
 22 23  2  0
 10  4  1  0
 23 14  1  0
 23 17  1  0
M  END
>  <HIPPO ID>  (295) 
100141

>  <ref_url>  (295) 
None

>  <ref_pdb>  (295) 
c0300a

>  <inchikey>  (295) 
PDIJYLSBCDCRNG-MRVPVSSYSA-N

>  <original SMILES>  (295) 
O=C(O)c1cc(Br)ncc1NC(=O)[C@@H]1CCc2ccc(O)nc21

>  <generation_date>  (295) 
None

>  <tags>  (295) 
[]

>  <ref_mols>  (295) 
c0305a,c1118a

>  <alias>  (295) 
None

>  <original ID>  (295) 
PDIJYLSBCDCRNG-MRVPVSSYSA-N

>  <exports>  (295) 
['/opt/xchem-fragalysis-2/maxwin/CHIKV_HIPPO/hippo_prod/CHIKV_prod11c_recipes/Recipe_1GJWBFH_poses.sdf', '/opt/xchem-fragalysis-2/maxwin/CHIKV_HIPPO/hippo_prod/CHIKV_prod11c_recipes/Recipe_1GJXK8G_poses.sdf', '/opt/xchem-fragalysis-2/maxwin/CHIKV_HIPPO/hippo_prod/CHIKV_prod11c_recipes/Recipe_1GJXW46_poses.sdf']

>  <method>  (295) 
None

>  <submitter_email>  (295) 
None

>  <submitter_name>  (295) 
None

$$$$
PDIJYLSBCDCRNG-QMMMGPOBSA-N
     RDKit          3D

 23 25  0  0  0  0  0  0  0  0999 V2000
   14.8362    0.7452   19.9344 O   0  0  0  0  0  0  0  0  0  0  0  0
   15.2363    0.3859   18.8431 C   0  0  0  0  0  0  0  0  0  0  0  0
   14.5704    0.5904   17.7137 O   0  0  0  0  0  0  0  0  0  0  0  0
   16.3312   -0.5668   18.5713 C   0  0  0  0  0  0  0  0  0  0  0  0
   16.3072   -1.6948   19.4154 C   0  0  0  0  0  0  0  0  0  0  0  0
   17.1752   -2.7396   19.1585 C   0  0  0  0  0  0  0  0  0  0  0  0
   17.1925   -4.2885   20.2311 Br  0  0  0  0  0  0  0  0  0  0  0  0
   18.0589   -2.7367   18.1483 N   0  0  0  0  0  0  0  0  0  0  0  0
   18.0786   -1.6382   17.3794 C   0  0  0  0  0  0  0  0  0  0  0  0
   17.2514   -0.5202   17.5145 C   0  0  0  0  0  0  0  0  0  0  0  0
   17.4607    0.4329   16.4986 N   0  0  0  0  0  0  0  0  0  0  0  0
   16.9699    1.7075   16.3163 C   0  0  0  0  0  0  0  0  0  0  0  0
   16.4970    2.4198   17.1856 O   0  0  0  0  0  0  0  0  0  0  0  0
   16.9918    2.0501   14.8424 C   0  0  1  0  0  0  0  0  0  0  0  0
   15.5638    1.8532   14.3807 C   0  0  0  0  0  0  0  0  0  0  0  0
   14.8674    3.1575   14.7598 C   0  0  0  0  0  0  0  0  0  0  0  0
   15.9008    4.0602   14.1971 C   0  0  0  0  0  0  0  0  0  0  0  0
   15.6362    5.0236   13.2459 C   0  0  0  0  0  0  0  0  0  0  0  0
   16.6223    5.2265   12.3119 C   0  0  0  0  0  0  0  0  0  0  0  0
   17.7980    4.5060   12.4599 C   0  0  0  0  0  0  0  0  0  0  0  0
   18.6582    4.4084   11.4244 O   0  0  0  0  0  0  0  0  0  0  0  0
   18.1414    3.6804   13.4485 N   0  0  0  0  0  0  0  0  0  0  0  0
   17.1564    3.4484   14.3196 C   0  0  0  0  0  0  0  0  0  0  0  0
  1  2  2  0
  2  3  1  0
  2  4  1  0
  4  5  2  0
  5  6  1  0
  6  7  1  0
  6  8  2  0
  8  9  1  0
  9 10  2  0
 10 11  1  0
 11 12  1  0
 12 13  2  0
 14 12  1  1
 14 15  1  0
 15 16  1  0
 16 17  1  0
 17 18  2  0
 18 19  1  0
 19 20  2  0
 20 21  1  0
 20 22  1  0
 22 23  2  0
 10  4  1  0
 23 14  1  0
 23 17  1  0
M  END
>  <HIPPO ID>  (296) 
100142

>  <ref_url>  (296) 
None

>  <ref_pdb>  (296) 
c0300a

>  <inchikey>  (296) 
PDIJYLSBCDCRNG-QMMMGPOBSA-N

>  <original SMILES>  (296) 
O=C(O)c1cc(Br)ncc1NC(=O)[C@H]1CCc2ccc(O)nc21

>  <generation_date>  (296) 
None

>  <tags>  (296) 
[]

>  <ref_mols>  (296) 
c0305a,c1118a

>  <alias>  (296) 
None

>  <original ID>  (296) 
PDIJYLSBCDCRNG-QMMMGPOBSA-N

>  <exports>  (296) 
['/opt/xchem-fragalysis-2/maxwin/CHIKV_HIPPO/hippo_prod/CHIKV_prod11c_recipes/Recipe_1GJWBFH_poses.sdf', '/opt/xchem-fragalysis-2/maxwin/CHIKV_HIPPO/hippo_prod/CHIKV_prod11c_recipes/Recipe_1GJXK8G_poses.sdf', '/opt/xchem-fragalysis-2/maxwin/CHIKV_HIPPO/hippo_prod/CHIKV_prod11c_recipes/Recipe_1GJXW46_poses.sdf']

>  <method>  (296) 
None

>  <submitter_email>  (296) 
None

>  <submitter_name>  (296) 
None

$$$$
UUOOUAIRJXELKH-UHFFFAOYSA-N
     RDKit          3D

 23 24  0  0  0  0  0  0  0  0999 V2000
   14.8524    0.5151   18.7331 C   0  0  0  0  0  0  0  0  0  0  0  0
   15.9069   -0.5327   18.5093 C   0  0  0  0  0  0  0  0  0  0  0  0
   15.7577   -1.7717   19.1334 C   0  0  0  0  0  0  0  0  0  0  0  0
   16.7131   -2.7544   18.9388 C   0  0  0  0  0  0  0  0  0  0  0  0
   17.7941   -2.6051   18.1445 N   0  0  0  0  0  0  0  0  0  0  0  0
   17.9350   -1.3961   17.5309 C   0  0  0  0  0  0  0  0  0  0  0  0
   19.1335   -1.2778   16.6276 C   0  0  0  0  0  0  0  0  0  0  0  0
   19.4370   -2.5247   15.9969 O   0  0  0  0  0  0  0  0  0  0  0  0
   17.0308   -0.3370   17.6947 C   0  0  0  0  0  0  0  0  0  0  0  0
   17.2783    0.9408   17.1483 N   0  0  0  0  0  0  0  0  0  0  0  0
   16.4851    1.4118   16.1087 C   0  0  0  0  0  0  0  0  0  0  0  0
   15.7758    0.6986   15.4189 O   0  0  0  0  0  0  0  0  0  0  0  0
   16.6034    2.9063   15.9677 C   0  0  0  0  0  0  0  0  0  0  0  0
   16.2441    3.4562   14.6261 C   0  0  0  0  0  0  0  0  0  0  0  0
   14.9207    3.5845   14.2233 C   0  0  0  0  0  0  0  0  0  0  0  0
   14.6194    4.2072   13.0144 C   0  0  0  0  0  0  0  0  0  0  0  0
   15.6475    4.6558   12.2176 C   0  0  0  0  0  0  0  0  0  0  0  0
   16.9222    4.4582   12.6947 C   0  0  0  0  0  0  0  0  0  0  0  0
   17.9625    4.8286   11.9121 O   0  0  0  0  0  0  0  0  0  0  0  0
   18.5915    3.6182   11.5982 C   0  0  0  0  0  0  0  0  0  0  0  0
   19.6564    4.0163   10.8617 F   0  0  0  0  0  0  0  0  0  0  0  0
   17.8265    2.9557   10.7213 F   0  0  0  0  0  0  0  0  0  0  0  0
   17.2610    3.9136   13.8755 N   0  0  0  0  0  0  0  0  0  0  0  0
  1  2  1  0
  2  3  2  0
  3  4  1  0
  4  5  2  0
  5  6  1  0
  6  7  1  0
  7  8  1  0
  6  9  2  0
  9 10  1  0
 10 11  1  0
 11 12  2  0
 11 13  1  0
 13 14  1  0
 14 15  2  0
 15 16  1  0
 16 17  2  0
 17 18  1  0
 18 19  1  0
 19 20  1  0
 20 21  1  0
 20 22  1  0
 18 23  2  0
  9  2  1  0
 23 14  1  0
M  END
>  <HIPPO ID>  (297) 
100327

>  <ref_url>  (297) 
None

>  <ref_pdb>  (297) 
c0300a

>  <inchikey>  (297) 
UUOOUAIRJXELKH-UHFFFAOYSA-N

>  <original SMILES>  (297) 
Cc1ccnc(CO)c1NC(=O)Cc1cccc(OC(F)F)n1

>  <generation_date>  (297) 
None

>  <tags>  (297) 
[]

>  <ref_mols>  (297) 
c0305a,c1118a

>  <alias>  (297) 
None

>  <original ID>  (297) 
UUOOUAIRJXELKH-UHFFFAOYSA-N

>  <exports>  (297) 
['/opt/xchem-fragalysis-2/maxwin/CHIKV_HIPPO/hippo_prod/CHIKV_prod11c_recipes/Recipe_1GJWBFH_poses.sdf', '/opt/xchem-fragalysis-2/maxwin/CHIKV_HIPPO/hippo_prod/CHIKV_prod11c_recipes/Recipe_1GJXK8G_poses.sdf', '/opt/xchem-fragalysis-2/maxwin/CHIKV_HIPPO/hippo_prod/CHIKV_prod11c_recipes/Recipe_1GJXW46_poses.sdf']

>  <method>  (297) 
None

>  <submitter_email>  (297) 
None

>  <submitter_name>  (297) 
None

$$$$
RZYOLOOYKSKWSQ-UHFFFAOYSA-N
     RDKit          3D

 23 24  0  0  0  0  0  0  0  0999 V2000
   18.4399    3.6033   11.6343 C   0  0  0  0  0  0  0  0  0  0  0  0
   18.1184    4.9475   11.9772 O   0  0  0  0  0  0  0  0  0  0  0  0
   17.0491    4.8735   12.8294 C   0  0  0  0  0  0  0  0  0  0  0  0
   15.8562    5.4519   12.4556 C   0  0  0  0  0  0  0  0  0  0  0  0
   14.7231    5.0804   13.1654 C   0  0  0  0  0  0  0  0  0  0  0  0
   14.8260    4.0995   14.1470 C   0  0  0  0  0  0  0  0  0  0  0  0
   16.0757    3.5519   14.4147 C   0  0  0  0  0  0  0  0  0  0  0  0
   16.1735    2.1138   14.8403 C   0  0  0  0  0  0  0  0  0  0  0  0
   15.2716    1.4000   14.1091 F   0  0  0  0  0  0  0  0  0  0  0  0
   17.3834    1.6135   14.4386 F   0  0  0  0  0  0  0  0  0  0  0  0
   16.0276    1.7968   16.3252 C   0  0  0  0  0  0  0  0  0  0  0  0
   15.3203    2.4531   17.0740 O   0  0  0  0  0  0  0  0  0  0  0  0
   16.7997    0.6756   16.6378 N   0  0  0  0  0  0  0  0  0  0  0  0
   16.7280   -0.3030   17.6595 C   0  0  0  0  0  0  0  0  0  0  0  0
   15.7396   -0.3986   18.6487 C   0  0  0  0  0  0  0  0  0  0  0  0
   14.6611    0.6080   18.9175 C   0  0  0  0  0  0  0  0  0  0  0  0
   15.7248   -1.5411   19.4695 C   0  0  0  0  0  0  0  0  0  0  0  0
   16.6682   -2.5361   19.3119 C   0  0  0  0  0  0  0  0  0  0  0  0
   17.6658   -2.4605   18.4198 N   0  0  0  0  0  0  0  0  0  0  0  0
   17.6951   -1.3466   17.6281 C   0  0  0  0  0  0  0  0  0  0  0  0
   18.9378   -1.2710   16.7664 C   0  0  0  0  0  0  0  0  0  0  0  0
   19.6035   -2.5335   16.6796 O   0  0  0  0  0  0  0  0  0  0  0  0
   17.2027    4.0440   13.8623 N   0  0  0  0  0  0  0  0  0  0  0  0
  1  2  1  0
  2  3  1  0
  3  4  2  0
  4  5  1  0
  5  6  2  0
  6  7  1  0
  7  8  1  0
  8  9  1  0
  8 10  1  0
  8 11  1  0
 11 12  2  0
 11 13  1  0
 13 14  1  0
 14 15  2  0
 15 16  1  0
 15 17  1  0
 17 18  2  0
 18 19  1  0
 19 20  2  0
 20 21  1  0
 21 22  1  0
  7 23  2  0
 23  3  1  0
 20 14  1  0
M  END
>  <HIPPO ID>  (298) 
100512

>  <ref_url>  (298) 
None

>  <ref_pdb>  (298) 
c0300a

>  <inchikey>  (298) 
RZYOLOOYKSKWSQ-UHFFFAOYSA-N

>  <original SMILES>  (298) 
COc1cccc(C(F)(F)C(=O)Nc2c(C)ccnc2CO)n1

>  <generation_date>  (298) 
None

>  <tags>  (298) 
[]

>  <ref_mols>  (298) 
c0305a,c1118a

>  <alias>  (298) 
None

>  <original ID>  (298) 
RZYOLOOYKSKWSQ-UHFFFAOYSA-N

>  <exports>  (298) 
['/opt/xchem-fragalysis-2/maxwin/CHIKV_HIPPO/hippo_prod/CHIKV_prod11c_recipes/Recipe_1GJWBFH_poses.sdf', '/opt/xchem-fragalysis-2/maxwin/CHIKV_HIPPO/hippo_prod/CHIKV_prod11c_recipes/Recipe_1GJXK8G_poses.sdf', '/opt/xchem-fragalysis-2/maxwin/CHIKV_HIPPO/hippo_prod/CHIKV_prod11c_recipes/Recipe_1GJXW46_poses.sdf']

>  <method>  (298) 
None

>  <submitter_email>  (298) 
None

>  <submitter_name>  (298) 
None

$$$$
SPXKAJYKGBSDIT-UHFFFAOYSA-N
     RDKit          3D

 24 25  0  0  0  0  0  0  0  0999 V2000
   17.0498   -3.8003   19.7034 C   0  0  0  0  0  0  0  0  0  0  0  0
   17.0297   -2.5125   18.9347 C   0  0  0  0  0  0  0  0  0  0  0  0
   17.9362   -2.4313   17.9410 N   0  0  0  0  0  0  0  0  0  0  0  0
   18.0086   -1.2582   17.2863 C   0  0  0  0  0  0  0  0  0  0  0  0
   19.3861   -1.1896   16.2655 Cl  0  0  0  0  0  0  0  0  0  0  0  0
   17.1744   -0.1645   17.5122 C   0  0  0  0  0  0  0  0  0  0  0  0
   17.4274    1.0960   16.9265 N   0  0  0  0  0  0  0  0  0  0  0  0
   16.5775    1.5113   15.9059 C   0  0  0  0  0  0  0  0  0  0  0  0
   15.8956    0.7594   15.2283 O   0  0  0  0  0  0  0  0  0  0  0  0
   16.5170    3.0127   15.8233 C   0  0  0  0  0  0  0  0  0  0  0  0
   16.1636    3.5354   14.4753 C   0  0  0  0  0  0  0  0  0  0  0  0
   14.8414    3.6629   14.0707 C   0  0  0  0  0  0  0  0  0  0  0  0
   14.5521    4.2353   12.8352 C   0  0  0  0  0  0  0  0  0  0  0  0
   15.5894    4.6297   12.0208 C   0  0  0  0  0  0  0  0  0  0  0  0
   16.8601    4.4380   12.5099 C   0  0  0  0  0  0  0  0  0  0  0  0
   17.9095    4.7840   11.7348 O   0  0  0  0  0  0  0  0  0  0  0  0
   18.5621    3.5740   11.4663 C   0  0  0  0  0  0  0  0  0  0  0  0
   17.8537    2.9139   10.5349 F   0  0  0  0  0  0  0  0  0  0  0  0
   19.6743    3.9855   10.8088 F   0  0  0  0  0  0  0  0  0  0  0  0
   17.1874    3.9506   13.7143 N   0  0  0  0  0  0  0  0  0  0  0  0
   16.1808   -0.2776   18.4846 C   0  0  0  0  0  0  0  0  0  0  0  0
   15.1865    0.8298   18.7499 C   0  0  0  0  0  0  0  0  0  0  0  0
   16.1718   -1.4490   19.2609 C   0  0  0  0  0  0  0  0  0  0  0  0
   15.2219   -1.5374   20.4006 C   0  0  0  0  0  0  0  0  0  0  0  0
  1  2  1  0
  2  3  2  0
  3  4  1  0
  4  5  1  0
  4  6  2  0
  6  7  1  0
  7  8  1  0
  8  9  2  0
  8 10  1  0
 10 11  1  0
 11 12  2  0
 12 13  1  0
 13 14  2  0
 14 15  1  0
 15 16  1  0
 16 17  1  0
 17 18  1  0
 17 19  1  0
 15 20  2  0
  6 21  1  0
 21 22  1  0
 21 23  2  0
 23 24  1  0
 23  2  1  0
 20 11  1  0
M  END
>  <HIPPO ID>  (299) 
100959

>  <ref_url>  (299) 
None

>  <ref_pdb>  (299) 
c0300a

>  <inchikey>  (299) 
SPXKAJYKGBSDIT-UHFFFAOYSA-N

>  <original SMILES>  (299) 
Cc1nc(Cl)c(NC(=O)Cc2cccc(OC(F)F)n2)c(C)c1C

>  <generation_date>  (299) 
None

>  <tags>  (299) 
[]

>  <ref_mols>  (299) 
c0305a,c1118a

>  <alias>  (299) 
None

>  <original ID>  (299) 
SPXKAJYKGBSDIT-UHFFFAOYSA-N

>  <exports>  (299) 
['/opt/xchem-fragalysis-2/maxwin/CHIKV_HIPPO/hippo_prod/CHIKV_prod11c_recipes/Recipe_1GJWBFH_poses.sdf', '/opt/xchem-fragalysis-2/maxwin/CHIKV_HIPPO/hippo_prod/CHIKV_prod11c_recipes/Recipe_1GJXK8G_poses.sdf', '/opt/xchem-fragalysis-2/maxwin/CHIKV_HIPPO/hippo_prod/CHIKV_prod11c_recipes/Recipe_1GJXW46_poses.sdf']

>  <method>  (299) 
None

>  <submitter_email>  (299) 
None

>  <submitter_name>  (299) 
None

$$$$
NDIXQJXCJCMZTG-UHFFFAOYSA-N
     RDKit          3D

 24 25  0  0  0  0  0  0  0  0999 V2000
   15.7629    0.5699   15.7373 O   0  0  0  0  0  0  0  0  0  0  0  0
   16.3981    1.3719   16.4118 C   0  0  0  0  0  0  0  0  0  0  0  0
   16.2180    2.8697   16.4126 C   0  0  0  0  0  0  0  0  0  0  0  0
   16.0994    3.3587   15.0265 C   0  0  0  0  0  0  0  0  0  0  0  0
   14.8721    3.6869   14.4715 C   0  0  0  0  0  0  0  0  0  0  0  0
   14.7897    3.9012   13.1176 C   0  0  0  0  0  0  0  0  0  0  0  0
   15.9324    3.7344   12.3757 C   0  0  0  0  0  0  0  0  0  0  0  0
   17.1505    3.5252   13.0358 C   0  0  0  0  0  0  0  0  0  0  0  0
   18.3840    3.5301   12.4882 O   0  0  0  0  0  0  0  0  0  0  0  0
   18.2686    3.8065   11.1541 C   0  0  0  0  0  0  0  0  0  0  0  0
   19.4994    4.1101   10.6808 F   0  0  0  0  0  0  0  0  0  0  0  0
   17.5871    4.9857   11.0302 F   0  0  0  0  0  0  0  0  0  0  0  0
   17.2485    3.3573   14.3442 N   0  0  0  0  0  0  0  0  0  0  0  0
   17.3870    0.9657   17.2872 N   0  0  0  0  0  0  0  0  0  0  0  0
   17.2453   -0.2964   17.8865 C   0  0  0  0  0  0  0  0  0  0  0  0
   18.2562   -1.2315   17.7190 C   0  0  0  0  0  0  0  0  0  0  0  0
   18.2317   -2.4742   18.2373 N   0  0  0  0  0  0  0  0  0  0  0  0
   17.1614   -2.7913   18.9954 C   0  0  0  0  0  0  0  0  0  0  0  0
   17.1829   -4.4976   19.8122 Br  0  0  0  0  0  0  0  0  0  0  0  0
   16.1050   -1.9316   19.2342 C   0  0  0  0  0  0  0  0  0  0  0  0
   16.1350   -0.6510   18.6693 C   0  0  0  0  0  0  0  0  0  0  0  0
   15.0359    0.3209   18.9840 C   0  0  0  0  0  0  0  0  0  0  0  0
   14.9770    1.5102   18.7348 O   0  0  0  0  0  0  0  0  0  0  0  0
   14.0479   -0.3010   19.6423 O   0  0  0  0  0  0  0  0  0  0  0  0
  1  2  2  0
  2  3  1  0
  3  4  1  0
  4  5  2  0
  5  6  1  0
  6  7  2  0
  7  8  1  0
  8  9  1  0
  9 10  1  0
 10 11  1  0
 10 12  1  0
  8 13  2  0
  2 14  1  0
 14 15  1  0
 15 16  2  0
 16 17  1  0
 17 18  2  0
 18 19  1  0
 18 20  1  0
 20 21  2  0
 21 22  1  0
 22 23  2  0
 22 24  1  0
 13  4  1  0
 21 15  1  0
M  END
>  <HIPPO ID>  (300) 
100963

>  <ref_url>  (300) 
None

>  <ref_pdb>  (300) 
c0300a

>  <inchikey>  (300) 
NDIXQJXCJCMZTG-UHFFFAOYSA-N

>  <original SMILES>  (300) 
O=C(Cc1cccc(OC(F)F)n1)Nc1cnc(Br)cc1C(=O)O

>  <generation_date>  (300) 
None

>  <tags>  (300) 
[]

>  <ref_mols>  (300) 
c0305a,c1118a

>  <alias>  (300) 
None

>  <original ID>  (300) 
NDIXQJXCJCMZTG-UHFFFAOYSA-N

>  <exports>  (300) 
['/opt/xchem-fragalysis-2/maxwin/CHIKV_HIPPO/hippo_prod/CHIKV_prod11c_recipes/Recipe_1GJWBFH_poses.sdf', '/opt/xchem-fragalysis-2/maxwin/CHIKV_HIPPO/hippo_prod/CHIKV_prod11c_recipes/Recipe_1GJXK8G_poses.sdf', '/opt/xchem-fragalysis-2/maxwin/CHIKV_HIPPO/hippo_prod/CHIKV_prod11c_recipes/Recipe_1GJXW46_poses.sdf']

>  <method>  (300) 
None

>  <submitter_email>  (300) 
None

>  <submitter_name>  (300) 
None

$$$$
OYGNQFZGDQASHO-UHFFFAOYSA-N
     RDKit          3D

 24 25  0  0  0  0  0  0  0  0999 V2000
   18.7885    5.3458   13.6102 C   0  0  0  0  0  0  0  0  0  0  0  0
   18.5656    4.8056   12.2845 O   0  0  0  0  0  0  0  0  0  0  0  0
   17.5444    3.8965   12.4229 C   0  0  0  0  0  0  0  0  0  0  0  0
   16.4240    4.0255   11.6300 C   0  0  0  0  0  0  0  0  0  0  0  0
   15.2473    3.4836   12.1154 C   0  0  0  0  0  0  0  0  0  0  0  0
   15.2477    2.9253   13.3891 C   0  0  0  0  0  0  0  0  0  0  0  0
   16.4355    2.8101   14.0827 C   0  0  0  0  0  0  0  0  0  0  0  0
   16.4405    2.5684   15.5630 C   0  0  0  0  0  0  0  0  0  0  0  0
   15.3727    3.1983   16.1584 F   0  0  0  0  0  0  0  0  0  0  0  0
   17.5219    3.1973   16.1503 F   0  0  0  0  0  0  0  0  0  0  0  0
   16.4592    1.0819   15.8737 C   0  0  0  0  0  0  0  0  0  0  0  0
   15.6204    0.2685   15.5016 O   0  0  0  0  0  0  0  0  0  0  0  0
   17.5203    0.7063   16.6836 N   0  0  0  0  0  0  0  0  0  0  0  0
   17.3569   -0.4225   17.5067 C   0  0  0  0  0  0  0  0  0  0  0  0
   18.2147   -1.5133   17.4167 C   0  0  0  0  0  0  0  0  0  0  0  0
   19.4843   -1.5909   16.2640 Cl  0  0  0  0  0  0  0  0  0  0  0  0
   18.1297   -2.6262   18.1602 N   0  0  0  0  0  0  0  0  0  0  0  0
   17.1734   -2.6432   19.1120 C   0  0  0  0  0  0  0  0  0  0  0  0
   17.1193   -3.9078   19.9154 C   0  0  0  0  0  0  0  0  0  0  0  0
   16.3012   -1.5626   19.3331 C   0  0  0  0  0  0  0  0  0  0  0  0
   15.3109   -1.5705   20.4445 C   0  0  0  0  0  0  0  0  0  0  0  0
   16.3538   -0.4413   18.4848 C   0  0  0  0  0  0  0  0  0  0  0  0
   15.3346    0.6731   18.6217 C   0  0  0  0  0  0  0  0  0  0  0  0
   17.6024    3.1726   13.5414 N   0  0  0  0  0  0  0  0  0  0  0  0
  1  2  1  0
  2  3  1  0
  3  4  2  0
  4  5  1  0
  5  6  2  0
  6  7  1  0
  7  8  1  0
  8  9  1  0
  8 10  1  0
  8 11  1  0
 11 12  2  0
 11 13  1  0
 13 14  1  0
 14 15  2  0
 15 16  1  0
 15 17  1  0
 17 18  2  0
 18 19  1  0
 18 20  1  0
 20 21  1  0
 20 22  2  0
 22 23  1  0
  7 24  2  0
 24  3  1  0
 22 14  1  0
M  END
>  <HIPPO ID>  (301) 
101194

>  <ref_url>  (301) 
None

>  <ref_pdb>  (301) 
c0300a

>  <inchikey>  (301) 
OYGNQFZGDQASHO-UHFFFAOYSA-N

>  <original SMILES>  (301) 
COc1cccc(C(F)(F)C(=O)Nc2c(Cl)nc(C)c(C)c2C)n1

>  <generation_date>  (301) 
None

>  <tags>  (301) 
[]

>  <ref_mols>  (301) 
c0305a,c1118a

>  <alias>  (301) 
None

>  <original ID>  (301) 
OYGNQFZGDQASHO-UHFFFAOYSA-N

>  <exports>  (301) 
['/opt/xchem-fragalysis-2/maxwin/CHIKV_HIPPO/hippo_prod/CHIKV_prod11c_recipes/Recipe_1GJWBFH_poses.sdf', '/opt/xchem-fragalysis-2/maxwin/CHIKV_HIPPO/hippo_prod/CHIKV_prod11c_recipes/Recipe_1GJXK8G_poses.sdf', '/opt/xchem-fragalysis-2/maxwin/CHIKV_HIPPO/hippo_prod/CHIKV_prod11c_recipes/Recipe_1GJXW46_poses.sdf']

>  <method>  (301) 
None

>  <submitter_email>  (301) 
None

>  <submitter_name>  (301) 
None

$$$$
DEVDABKSPBNPNJ-UHFFFAOYSA-N
     RDKit          3D

 24 25  0  0  0  0  0  0  0  0999 V2000
   18.4922    3.5673   11.2939 C   0  0  0  0  0  0  0  0  0  0  0  0
   17.7976    4.7938   11.5052 O   0  0  0  0  0  0  0  0  0  0  0  0
   16.8485    4.5197   12.4354 C   0  0  0  0  0  0  0  0  0  0  0  0
   15.5182    4.7224   12.1989 C   0  0  0  0  0  0  0  0  0  0  0  0
   14.6424    4.2018   13.1428 C   0  0  0  0  0  0  0  0  0  0  0  0
   15.1281    3.4352   14.2104 C   0  0  0  0  0  0  0  0  0  0  0  0
   16.4911    3.2795   14.3365 C   0  0  0  0  0  0  0  0  0  0  0  0
   17.2510    2.4692   15.3257 C   0  0  0  0  0  0  0  0  0  0  0  0
   18.3805    1.9649   14.7065 F   0  0  0  0  0  0  0  0  0  0  0  0
   17.7894    3.2916   16.2913 F   0  0  0  0  0  0  0  0  0  0  0  0
   16.5938    1.2738   15.9832 C   0  0  0  0  0  0  0  0  0  0  0  0
   15.7343    0.5561   15.4933 O   0  0  0  0  0  0  0  0  0  0  0  0
   17.3068    0.9596   17.1505 N   0  0  0  0  0  0  0  0  0  0  0  0
   17.0979   -0.2718   17.7713 C   0  0  0  0  0  0  0  0  0  0  0  0
   18.1101   -1.2166   17.6677 C   0  0  0  0  0  0  0  0  0  0  0  0
   18.0735   -2.4233   18.2463 N   0  0  0  0  0  0  0  0  0  0  0  0
   16.9920   -2.6903   19.0052 C   0  0  0  0  0  0  0  0  0  0  0  0
   17.0508   -4.3509   19.9033 Br  0  0  0  0  0  0  0  0  0  0  0  0
   15.9281   -1.8139   19.1781 C   0  0  0  0  0  0  0  0  0  0  0  0
   15.9716   -0.5674   18.5395 C   0  0  0  0  0  0  0  0  0  0  0  0
   14.8915    0.4488   18.7403 C   0  0  0  0  0  0  0  0  0  0  0  0
   14.7304    1.5076   18.1618 O   0  0  0  0  0  0  0  0  0  0  0  0
   14.0502    0.0702   19.7181 O   0  0  0  0  0  0  0  0  0  0  0  0
   17.3315    3.9392   13.5228 N   0  0  0  0  0  0  0  0  0  0  0  0
  1  2  1  0
  2  3  1  0
  3  4  2  0
  4  5  1  0
  5  6  2  0
  6  7  1  0
  7  8  1  0
  8  9  1  0
  8 10  1  0
  8 11  1  0
 11 12  2  0
 11 13  1  0
 13 14  1  0
 14 15  2  0
 15 16  1  0
 16 17  2  0
 17 18  1  0
 17 19  1  0
 19 20  2  0
 20 21  1  0
 21 22  2  0
 21 23  1  0
  7 24  2  0
 24  3  1  0
 20 14  1  0
M  END
>  <HIPPO ID>  (302) 
101218

>  <ref_url>  (302) 
None

>  <ref_pdb>  (302) 
c0300a

>  <inchikey>  (302) 
DEVDABKSPBNPNJ-UHFFFAOYSA-N

>  <original SMILES>  (302) 
COc1cccc(C(F)(F)C(=O)Nc2cnc(Br)cc2C(=O)O)n1

>  <generation_date>  (302) 
None

>  <tags>  (302) 
[]

>  <ref_mols>  (302) 
c0305a,c1118a

>  <alias>  (302) 
None

>  <original ID>  (302) 
DEVDABKSPBNPNJ-UHFFFAOYSA-N

>  <exports>  (302) 
['/opt/xchem-fragalysis-2/maxwin/CHIKV_HIPPO/hippo_prod/CHIKV_prod11c_recipes/Recipe_1GJWBFH_poses.sdf', '/opt/xchem-fragalysis-2/maxwin/CHIKV_HIPPO/hippo_prod/CHIKV_prod11c_recipes/Recipe_1GJXK8G_poses.sdf', '/opt/xchem-fragalysis-2/maxwin/CHIKV_HIPPO/hippo_prod/CHIKV_prod11c_recipes/Recipe_1GJXW46_poses.sdf']

>  <method>  (302) 
None

>  <submitter_email>  (302) 
None

>  <submitter_name>  (302) 
None

$$$$
QDQFTTDVKMGWRV-UHFFFAOYSA-N
     RDKit          3D

 13 15  0  0  0  0  0  0  0  0999 V2000
   14.5890    9.8177    8.9955 C   0  0  0  0  0  0  0  0  0  0  0  0
   14.7333   10.2115   10.3684 N   0  0  0  0  0  0  0  0  0  0  0  0
   14.6687   11.4567   10.9224 C   0  0  0  0  0  0  0  0  0  0  0  0
   14.8677   11.4145   12.2223 N   0  0  0  0  0  0  0  0  0  0  0  0
   14.9060   10.0716   12.5402 C   0  0  0  0  0  0  0  0  0  0  0  0
   15.0086    9.4262   13.7925 C   0  0  0  0  0  0  0  0  0  0  0  0
   15.1411   10.2933   15.0109 C   0  0  0  0  0  0  0  0  0  0  0  0
   16.4501   10.2702   15.7655 C   0  0  0  0  0  0  0  0  0  0  0  0
   15.2099    9.7306   16.4111 C   0  0  0  0  0  0  0  0  0  0  0  0
   14.9896    8.0134   13.7828 C   0  0  0  0  0  0  0  0  0  0  0  0
   14.8697    7.2699   12.6066 C   0  0  0  0  0  0  0  0  0  0  0  0
   14.7722    7.8992   11.3737 C   0  0  0  0  0  0  0  0  0  0  0  0
   14.8094    9.2981   11.3841 C   0  0  0  0  0  0  0  0  0  0  0  0
  1  2  1  0
  2  3  1  0
  3  4  2  0
  4  5  1  0
  5  6  2  0
  6  7  1  0
  7  8  1  0
  8  9  1  0
  6 10  1  0
 10 11  2  0
 11 12  1  0
 12 13  2  0
 13  2  1  0
 13  5  1  0
  9  7  1  0
M  END
>  <HIPPO ID>  (303) 
101567

>  <ref_url>  (303) 
None

>  <ref_pdb>  (303) 
c0300a

>  <inchikey>  (303) 
QDQFTTDVKMGWRV-UHFFFAOYSA-N

>  <original SMILES>  (303) 
Cn1cnc2c(C3CC3)cccc21

>  <generation_date>  (303) 
None

>  <tags>  (303) 
[]

>  <ref_mols>  (303) 
c0894a,c1134a

>  <alias>  (303) 
None

>  <original ID>  (303) 
QDQFTTDVKMGWRV-UHFFFAOYSA-N

>  <exports>  (303) 
['/opt/xchem-fragalysis-2/maxwin/CHIKV_HIPPO/hippo_prod/CHIKV_prod11c_recipes/Recipe_1GJWBFH_poses.sdf', '/opt/xchem-fragalysis-2/maxwin/CHIKV_HIPPO/hippo_prod/CHIKV_prod11c_recipes/Recipe_1GJXK8G_poses.sdf', '/opt/xchem-fragalysis-2/maxwin/CHIKV_HIPPO/hippo_prod/CHIKV_prod11c_recipes/Recipe_1GJXW46_poses.sdf']

>  <method>  (303) 
None

>  <submitter_email>  (303) 
None

>  <submitter_name>  (303) 
None

$$$$
KAVXAOQZINTUMZ-UHFFFAOYSA-N
     RDKit          3D

 13 14  0  0  0  0  0  0  0  0999 V2000
   14.8867   11.8527   15.0988 C   0  0  0  0  0  0  0  0  0  0  0  0
   15.6671   10.5420   14.9675 C   0  0  0  0  0  0  0  0  0  0  0  0
   15.6986    9.8219   16.3149 C   0  0  0  0  0  0  0  0  0  0  0  0
   15.2134    9.6815   13.7961 C   0  0  0  0  0  0  0  0  0  0  0  0
   15.1472    8.2661   13.8751 C   0  0  0  0  0  0  0  0  0  0  0  0
   14.9032    7.4488   12.7648 C   0  0  0  0  0  0  0  0  0  0  0  0
   14.7405    7.9922   11.4989 C   0  0  0  0  0  0  0  0  0  0  0  0
   14.7996    9.3861   11.4191 C   0  0  0  0  0  0  0  0  0  0  0  0
   14.9830   10.2265   12.5148 C   0  0  0  0  0  0  0  0  0  0  0  0
   14.9440   11.5419   12.1183 N   0  0  0  0  0  0  0  0  0  0  0  0
   14.6419   11.5105   10.8417 C   0  0  0  0  0  0  0  0  0  0  0  0
   14.6901   10.2390   10.3538 N   0  0  0  0  0  0  0  0  0  0  0  0
   14.5036    9.7793    9.0062 C   0  0  0  0  0  0  0  0  0  0  0  0
  1  2  1  0
  2  3  1  0
  2  4  1  0
  4  5  2  0
  5  6  1  0
  6  7  2  0
  7  8  1  0
  8  9  2  0
  9 10  1  0
 10 11  2  0
 11 12  1  0
 12 13  1  0
  9  4  1  0
 12  8  1  0
M  END
>  <HIPPO ID>  (304) 
101568

>  <ref_url>  (304) 
None

>  <ref_pdb>  (304) 
c0300a

>  <inchikey>  (304) 
KAVXAOQZINTUMZ-UHFFFAOYSA-N

>  <original SMILES>  (304) 
CC(C)c1cccc2c1ncn2C

>  <generation_date>  (304) 
None

>  <tags>  (304) 
[]

>  <ref_mols>  (304) 
c0894a,c1134a

>  <alias>  (304) 
None

>  <original ID>  (304) 
KAVXAOQZINTUMZ-UHFFFAOYSA-N

>  <exports>  (304) 
['/opt/xchem-fragalysis-2/maxwin/CHIKV_HIPPO/hippo_prod/CHIKV_prod11c_recipes/Recipe_1GJWBFH_poses.sdf', '/opt/xchem-fragalysis-2/maxwin/CHIKV_HIPPO/hippo_prod/CHIKV_prod11c_recipes/Recipe_1GJXK8G_poses.sdf', '/opt/xchem-fragalysis-2/maxwin/CHIKV_HIPPO/hippo_prod/CHIKV_prod11c_recipes/Recipe_1GJXW46_poses.sdf']

>  <method>  (304) 
None

>  <submitter_email>  (304) 
None

>  <submitter_name>  (304) 
None

$$$$
BTWMCXHJSMIREL-ITWVYHRLSA-N
     RDKit          3D

 14 17  0  0  0  0  0  0  0  0999 V2000
   14.5586    9.7409    9.0339 C   0  0  0  0  0  0  0  0  0  0  0  0
   14.7259   10.1938   10.3872 N   0  0  0  0  0  0  0  0  0  0  0  0
   14.6480   11.4678   10.8701 C   0  0  0  0  0  0  0  0  0  0  0  0
   14.8601   11.5058   12.1646 N   0  0  0  0  0  0  0  0  0  0  0  0
   14.8921   10.1901   12.5705 C   0  0  0  0  0  0  0  0  0  0  0  0
   14.9743    9.6324   13.8650 C   0  0  0  0  0  0  0  0  0  0  0  0
   15.0043   10.4894   15.0751 C   0  0  1  0  0  0  0  0  0  0  0  0
   14.7579   11.9475   15.2208 C   0  0  0  0  0  0  0  0  0  0  0  0
   16.1598   11.4615   15.3044 C   0  0  1  0  0  0  0  0  0  0  0  0
   15.9248   10.3271   16.2339 C   0  0  0  0  0  0  0  0  0  0  0  0
   14.9722    8.2201   13.9377 C   0  0  0  0  0  0  0  0  0  0  0  0
   14.8826    7.4015   12.8081 C   0  0  0  0  0  0  0  0  0  0  0  0
   14.7891    7.9501   11.5359 C   0  0  0  0  0  0  0  0  0  0  0  0
   14.8127    9.3472   11.4593 C   0  0  0  0  0  0  0  0  0  0  0  0
  1  2  1  0
  2  3  1  0
  3  4  2  0
  4  5  1  0
  5  6  2  0
  7  6  1  6
  7  8  1  0
  9  8  1  1
  9 10  1  0
  6 11  1  0
 11 12  2  0
 12 13  1  0
 13 14  2  0
 14  2  1  0
 14  5  1  0
  9  7  1  0
 10  7  1  0
M  END
>  <HIPPO ID>  (305) 
101585

>  <ref_url>  (305) 
None

>  <ref_pdb>  (305) 
c0300a

>  <inchikey>  (305) 
BTWMCXHJSMIREL-ITWVYHRLSA-N

>  <original SMILES>  (305) 
Cn1cnc2c1cccc2[C@]12C[C@H]1C2

>  <generation_date>  (305) 
None

>  <tags>  (305) 
[]

>  <ref_mols>  (305) 
c0894a,c1134a

>  <alias>  (305) 
None

>  <original ID>  (305) 
BTWMCXHJSMIREL-ITWVYHRLSA-N

>  <exports>  (305) 
['/opt/xchem-fragalysis-2/maxwin/CHIKV_HIPPO/hippo_prod/CHIKV_prod11c_recipes/Recipe_1GJWBFH_poses.sdf', '/opt/xchem-fragalysis-2/maxwin/CHIKV_HIPPO/hippo_prod/CHIKV_prod11c_recipes/Recipe_1GJXK8G_poses.sdf', '/opt/xchem-fragalysis-2/maxwin/CHIKV_HIPPO/hippo_prod/CHIKV_prod11c_recipes/Recipe_1GJXW46_poses.sdf']

>  <method>  (305) 
None

>  <submitter_email>  (305) 
None

>  <submitter_name>  (305) 
None

$$$$
CSYGCBBOSAXSJE-UHFFFAOYSA-N
     RDKit          3D

 14 16  0  0  0  0  0  0  0  0999 V2000
   14.6027    9.7706    8.9259 C   0  0  0  0  0  0  0  0  0  0  0  0
   14.7510   10.0901   10.3144 N   0  0  0  0  0  0  0  0  0  0  0  0
   14.6774   11.3077   10.9294 C   0  0  0  0  0  0  0  0  0  0  0  0
   14.8033   11.1935   12.2351 N   0  0  0  0  0  0  0  0  0  0  0  0
   14.8573    9.8363   12.4768 C   0  0  0  0  0  0  0  0  0  0  0  0
   14.8719    9.1166   13.6879 C   0  0  0  0  0  0  0  0  0  0  0  0
   14.6078    9.8882   14.9945 C   0  0  0  0  0  0  0  0  0  0  0  0
   15.4187    9.5774   16.2580 C   0  0  0  0  0  0  0  0  0  0  0  0
   15.3218   10.9744   16.6577 O   0  0  0  0  0  0  0  0  0  0  0  0
   15.0872   11.3200   15.2553 C   0  0  0  0  0  0  0  0  0  0  0  0
   14.9485    7.7074   13.6000 C   0  0  0  0  0  0  0  0  0  0  0  0
   14.9358    7.0322   12.3817 C   0  0  0  0  0  0  0  0  0  0  0  0
   14.8418    7.7316   11.1878 C   0  0  0  0  0  0  0  0  0  0  0  0
   14.8300    9.1271   11.2781 C   0  0  0  0  0  0  0  0  0  0  0  0
  1  2  1  0
  2  3  1  0
  3  4  2  0
  4  5  1  0
  5  6  2  0
  6  7  1  0
  7  8  1  0
  8  9  1  0
  9 10  1  0
  6 11  1  0
 11 12  2  0
 12 13  1  0
 13 14  2  0
 14  2  1  0
 14  5  1  0
 10  7  1  0
M  END
>  <HIPPO ID>  (306) 
101588

>  <ref_url>  (306) 
None

>  <ref_pdb>  (306) 
c0300a

>  <inchikey>  (306) 
CSYGCBBOSAXSJE-UHFFFAOYSA-N

>  <original SMILES>  (306) 
Cn1cnc2c(C3COC3)cccc21

>  <generation_date>  (306) 
None

>  <tags>  (306) 
[]

>  <ref_mols>  (306) 
c0894a,c1134a

>  <alias>  (306) 
None

>  <original ID>  (306) 
CSYGCBBOSAXSJE-UHFFFAOYSA-N

>  <exports>  (306) 
['/opt/xchem-fragalysis-2/maxwin/CHIKV_HIPPO/hippo_prod/CHIKV_prod11c_recipes/Recipe_1GJWBFH_poses.sdf', '/opt/xchem-fragalysis-2/maxwin/CHIKV_HIPPO/hippo_prod/CHIKV_prod11c_recipes/Recipe_1GJXK8G_poses.sdf', '/opt/xchem-fragalysis-2/maxwin/CHIKV_HIPPO/hippo_prod/CHIKV_prod11c_recipes/Recipe_1GJXW46_poses.sdf']

>  <method>  (306) 
None

>  <submitter_email>  (306) 
None

>  <submitter_name>  (306) 
None

$$$$
LBCFCMGMDDFRLQ-UHFFFAOYSA-N
     RDKit          3D

 14 15  0  0  0  0  0  0  0  0999 V2000
   16.6344   10.7577   15.5482 C   0  0  0  0  0  0  0  0  0  0  0  0
   15.1818   10.6882   15.0858 C   0  0  0  0  0  0  0  0  0  0  0  0
   14.6600   12.1182   14.9269 C   0  0  0  0  0  0  0  0  0  0  0  0
   15.0405    9.8099   13.8553 C   0  0  0  0  0  0  0  0  0  0  0  0
   15.0525    8.4009   14.0112 C   0  0  0  0  0  0  0  0  0  0  0  0
   14.9268    7.5173   12.9334 C   0  0  0  0  0  0  0  0  0  0  0  0
   14.7975    7.9878   11.6326 C   0  0  0  0  0  0  0  0  0  0  0  0
   14.8150    9.3770   11.4769 C   0  0  0  0  0  0  0  0  0  0  0  0
   14.9122   10.2837   12.5366 C   0  0  0  0  0  0  0  0  0  0  0  0
   14.8405   11.5784   12.0778 N   0  0  0  0  0  0  0  0  0  0  0  0
   14.6046   11.4520   10.8048 C   0  0  0  0  0  0  0  0  0  0  0  0
   14.2307   12.4599   10.0596 O   0  0  0  0  0  0  0  0  0  0  0  0
   14.7066   10.1658   10.3646 N   0  0  0  0  0  0  0  0  0  0  0  0
   14.5139    9.6677    9.0320 C   0  0  0  0  0  0  0  0  0  0  0  0
  1  2  1  0
  2  3  1  0
  2  4  1  0
  4  5  2  0
  5  6  1  0
  6  7  2  0
  7  8  1  0
  8  9  2  0
  9 10  1  0
 10 11  2  0
 11 12  1  0
 11 13  1  0
 13 14  1  0
  9  4  1  0
 13  8  1  0
M  END
>  <HIPPO ID>  (307) 
101603

>  <ref_url>  (307) 
None

>  <ref_pdb>  (307) 
c0300a

>  <inchikey>  (307) 
LBCFCMGMDDFRLQ-UHFFFAOYSA-N

>  <original SMILES>  (307) 
CC(C)c1cccc2c1nc(O)n2C

>  <generation_date>  (307) 
None

>  <tags>  (307) 
[]

>  <ref_mols>  (307) 
c0894a,c1134a

>  <alias>  (307) 
None

>  <original ID>  (307) 
LBCFCMGMDDFRLQ-UHFFFAOYSA-N

>  <exports>  (307) 
['/opt/xchem-fragalysis-2/maxwin/CHIKV_HIPPO/hippo_prod/CHIKV_prod11b_recipes/Recipe_1GFD8FK_poses.sdf', '/opt/xchem-fragalysis-2/maxwin/CHIKV_HIPPO/hippo_prod/CHIKV_prod11c_recipes/Recipe_1GJWBFH_poses.sdf', '/opt/xchem-fragalysis-2/maxwin/CHIKV_HIPPO/hippo_prod/CHIKV_prod11c_recipes/Recipe_1GJXK8G_poses.sdf', '/opt/xchem-fragalysis-2/maxwin/CHIKV_HIPPO/hippo_prod/CHIKV_prod11c_recipes/Recipe_1GJXW46_poses.sdf']

>  <method>  (307) 
None

>  <submitter_email>  (307) 
None

>  <submitter_name>  (307) 
None

$$$$
SAONFCRNJNWZTP-UHFFFAOYSA-N
     RDKit          3D

 14 16  0  0  0  0  0  0  0  0999 V2000
   14.4800    9.7813    8.9819 C   0  0  0  0  0  0  0  0  0  0  0  0
   14.6850   10.1867   10.3420 N   0  0  0  0  0  0  0  0  0  0  0  0
   14.6104   11.4326   10.8923 C   0  0  0  0  0  0  0  0  0  0  0  0
   14.2263   12.5039   10.2401 O   0  0  0  0  0  0  0  0  0  0  0  0
   14.8954   11.4390   12.1671 N   0  0  0  0  0  0  0  0  0  0  0  0
   14.9779   10.0978   12.5006 C   0  0  0  0  0  0  0  0  0  0  0  0
   15.2224    9.4666   13.7380 C   0  0  0  0  0  0  0  0  0  0  0  0
   15.6238   10.2993   14.9112 C   0  0  0  0  0  0  0  0  0  0  0  0
   14.7591   11.4220   15.4051 C   0  0  0  0  0  0  0  0  0  0  0  0
   14.8599   10.1482   16.1983 C   0  0  0  0  0  0  0  0  0  0  0  0
   15.1845    8.0554   13.7727 C   0  0  0  0  0  0  0  0  0  0  0  0
   14.9412    7.2890   12.6328 C   0  0  0  0  0  0  0  0  0  0  0  0
   14.7598    7.8947   11.3960 C   0  0  0  0  0  0  0  0  0  0  0  0
   14.8039    9.2944   11.3716 C   0  0  0  0  0  0  0  0  0  0  0  0
  1  2  1  0
  2  3  1  0
  3  4  1  0
  3  5  2  0
  5  6  1  0
  6  7  2  0
  7  8  1  0
  8  9  1  0
  9 10  1  0
  7 11  1  0
 11 12  2  0
 12 13  1  0
 13 14  2  0
 14  2  1  0
 14  6  1  0
 10  8  1  0
M  END
>  <HIPPO ID>  (308) 
101604

>  <ref_url>  (308) 
None

>  <ref_pdb>  (308) 
c0300a

>  <inchikey>  (308) 
SAONFCRNJNWZTP-UHFFFAOYSA-N

>  <original SMILES>  (308) 
Cn1c(O)nc2c(C3CC3)cccc21

>  <generation_date>  (308) 
None

>  <tags>  (308) 
[]

>  <ref_mols>  (308) 
c0894a,c1134a

>  <alias>  (308) 
None

>  <original ID>  (308) 
SAONFCRNJNWZTP-UHFFFAOYSA-N

>  <exports>  (308) 
['/opt/xchem-fragalysis-2/maxwin/CHIKV_HIPPO/hippo_prod/CHIKV_prod11c_recipes/Recipe_1GJWBFH_poses.sdf', '/opt/xchem-fragalysis-2/maxwin/CHIKV_HIPPO/hippo_prod/CHIKV_prod11c_recipes/Recipe_1GJXK8G_poses.sdf', '/opt/xchem-fragalysis-2/maxwin/CHIKV_HIPPO/hippo_prod/CHIKV_prod11c_recipes/Recipe_1GJXW46_poses.sdf']

>  <method>  (308) 
None

>  <submitter_email>  (308) 
None

>  <submitter_name>  (308) 
None

$$$$
JQYCGBNJDYUOQB-UHFFFAOYSA-N
     RDKit          3D

 14 15  0  0  0  0  0  0  0  0999 V2000
   14.5006    9.7588    9.0318 C   0  0  0  0  0  0  0  0  0  0  0  0
   14.6977   10.1990   10.3848 N   0  0  0  0  0  0  0  0  0  0  0  0
   14.6471   11.4680   10.8823 C   0  0  0  0  0  0  0  0  0  0  0  0
   14.9263   11.4894   12.1650 N   0  0  0  0  0  0  0  0  0  0  0  0
   14.9830   10.1705   12.5558 C   0  0  0  0  0  0  0  0  0  0  0  0
   15.2004    9.6095   13.8378 C   0  0  0  0  0  0  0  0  0  0  0  0
   15.4681   10.4241   15.1173 C   0  0  0  0  0  0  0  0  0  0  0  0
   14.8104   11.8173   15.0738 C   0  0  0  0  0  0  0  0  0  0  0  0
   16.9717   10.6481   15.3391 C   0  0  0  0  0  0  0  0  0  0  0  0
   14.9575    9.6804   16.3636 C   0  0  0  0  0  0  0  0  0  0  0  0
   15.2051    8.1856   13.8712 C   0  0  0  0  0  0  0  0  0  0  0  0
   14.9820    7.3817   12.7480 C   0  0  0  0  0  0  0  0  0  0  0  0
   14.7780    7.9458   11.5001 C   0  0  0  0  0  0  0  0  0  0  0  0
   14.8145    9.3414   11.4444 C   0  0  0  0  0  0  0  0  0  0  0  0
  1  2  1  0
  2  3  1  0
  3  4  2  0
  4  5  1  0
  5  6  2  0
  6  7  1  0
  7  8  1  0
  7  9  1  0
  7 10  1  0
  6 11  1  0
 11 12  2  0
 12 13  1  0
 13 14  2  0
 14  2  1  0
 14  5  1  0
M  END
>  <HIPPO ID>  (309) 
101606

>  <ref_url>  (309) 
None

>  <ref_pdb>  (309) 
c0300a

>  <inchikey>  (309) 
JQYCGBNJDYUOQB-UHFFFAOYSA-N

>  <original SMILES>  (309) 
Cn1cnc2c(C(C)(C)C)cccc21

>  <generation_date>  (309) 
None

>  <tags>  (309) 
[]

>  <ref_mols>  (309) 
c0894a,c1134a

>  <alias>  (309) 
None

>  <original ID>  (309) 
JQYCGBNJDYUOQB-UHFFFAOYSA-N

>  <exports>  (309) 
['/opt/xchem-fragalysis-2/maxwin/CHIKV_HIPPO/hippo_prod/CHIKV_prod11c_recipes/Recipe_1GJWBFH_poses.sdf', '/opt/xchem-fragalysis-2/maxwin/CHIKV_HIPPO/hippo_prod/CHIKV_prod11c_recipes/Recipe_1GJXK8G_poses.sdf', '/opt/xchem-fragalysis-2/maxwin/CHIKV_HIPPO/hippo_prod/CHIKV_prod11c_recipes/Recipe_1GJXW46_poses.sdf']

>  <method>  (309) 
None

>  <submitter_email>  (309) 
None

>  <submitter_name>  (309) 
None

$$$$
LHYZZIVEMKXAAX-UHFFFAOYSA-N
     RDKit          3D

 14 16  0  0  0  0  0  0  0  0999 V2000
   14.5959    9.8918    9.2079 C   0  0  0  0  0  0  0  0  0  0  0  0
   14.7519    9.9807   10.6323 N   0  0  0  0  0  0  0  0  0  0  0  0
   14.7100   11.0860   11.4378 C   0  0  0  0  0  0  0  0  0  0  0  0
   14.4090   12.5390   11.1133 C   0  0  0  0  0  0  0  0  0  0  0  0
   13.7725   13.3161   12.2256 C   0  0  0  0  0  0  0  0  0  0  0  0
   13.0240   13.0582   10.9504 C   0  0  0  0  0  0  0  0  0  0  0  0
   14.9381   10.7884   12.6906 N   0  0  0  0  0  0  0  0  0  0  0  0
   14.9376    9.4320   12.7377 C   0  0  0  0  0  0  0  0  0  0  0  0
   15.0408    8.5882   13.8434 C   0  0  0  0  0  0  0  0  0  0  0  0
   15.1729    9.3299   15.5699 Br  0  0  0  0  0  0  0  0  0  0  0  0
   15.0264    7.2098   13.6325 C   0  0  0  0  0  0  0  0  0  0  0  0
   14.8926    6.6864   12.3409 C   0  0  0  0  0  0  0  0  0  0  0  0
   14.7714    7.5124   11.2214 C   0  0  0  0  0  0  0  0  0  0  0  0
   14.8113    8.8871   11.4595 C   0  0  0  0  0  0  0  0  0  0  0  0
  1  2  1  0
  2  3  1  0
  3  4  1  0
  4  5  1  0
  5  6  1  0
  3  7  2  0
  7  8  1  0
  8  9  2  0
  9 10  1  0
  9 11  1  0
 11 12  2  0
 12 13  1  0
 13 14  2  0
 14  2  1  0
  6  4  1  0
 14  8  1  0
M  END
>  <HIPPO ID>  (310) 
101610

>  <ref_url>  (310) 
None

>  <ref_pdb>  (310) 
c0300a

>  <inchikey>  (310) 
LHYZZIVEMKXAAX-UHFFFAOYSA-N

>  <original SMILES>  (310) 
Cn1c(C2CC2)nc2c(Br)cccc21

>  <generation_date>  (310) 
None

>  <tags>  (310) 
[]

>  <ref_mols>  (310) 
c0894a,c1134a

>  <alias>  (310) 
None

>  <original ID>  (310) 
LHYZZIVEMKXAAX-UHFFFAOYSA-N

>  <exports>  (310) 
['/opt/xchem-fragalysis-2/maxwin/CHIKV_HIPPO/hippo_prod/CHIKV_prod11c_recipes/Recipe_1GJWBFH_poses.sdf', '/opt/xchem-fragalysis-2/maxwin/CHIKV_HIPPO/hippo_prod/CHIKV_prod11c_recipes/Recipe_1GJXK8G_poses.sdf', '/opt/xchem-fragalysis-2/maxwin/CHIKV_HIPPO/hippo_prod/CHIKV_prod11c_recipes/Recipe_1GJXW46_poses.sdf']

>  <method>  (310) 
None

>  <submitter_email>  (310) 
None

>  <submitter_name>  (310) 
None

$$$$
DNKORNSFUCJWJH-UHFFFAOYSA-N
     RDKit          3D

 14 15  0  0  0  0  0  0  0  0999 V2000
   15.5095    9.2799   16.4570 C   0  0  0  0  0  0  0  0  0  0  0  0
   15.6936   10.0187   15.1355 C   0  0  0  0  0  0  0  0  0  0  0  0
   15.0473   11.4093   15.2450 C   0  0  0  0  0  0  0  0  0  0  0  0
   15.2614    9.2197   13.9109 C   0  0  0  0  0  0  0  0  0  0  0  0
   15.2021    7.8073   13.8895 C   0  0  0  0  0  0  0  0  0  0  0  0
   14.9381    7.0698   12.7249 C   0  0  0  0  0  0  0  0  0  0  0  0
   14.7408    7.6907   11.4978 C   0  0  0  0  0  0  0  0  0  0  0  0
   14.8101    9.0813   11.5097 C   0  0  0  0  0  0  0  0  0  0  0  0
   15.0356    9.8344   12.6675 C   0  0  0  0  0  0  0  0  0  0  0  0
   15.0527   11.1653   12.3848 N   0  0  0  0  0  0  0  0  0  0  0  0
   14.6740   11.2212   11.1451 C   0  0  0  0  0  0  0  0  0  0  0  0
   13.9338   12.5808   10.5324 Cl  0  0  0  0  0  0  0  0  0  0  0  0
   14.6941   10.0169   10.5121 N   0  0  0  0  0  0  0  0  0  0  0  0
   14.4317    9.7012    9.1346 C   0  0  0  0  0  0  0  0  0  0  0  0
  1  2  1  0
  2  3  1  0
  2  4  1  0
  4  5  2  0
  5  6  1  0
  6  7  2  0
  7  8  1  0
  8  9  2  0
  9 10  1  0
 10 11  2  0
 11 12  1  0
 11 13  1  0
 13 14  1  0
  9  4  1  0
 13  8  1  0
M  END
>  <HIPPO ID>  (311) 
101611

>  <ref_url>  (311) 
None

>  <ref_pdb>  (311) 
c0300a

>  <inchikey>  (311) 
DNKORNSFUCJWJH-UHFFFAOYSA-N

>  <original SMILES>  (311) 
CC(C)c1cccc2c1nc(Cl)n2C

>  <generation_date>  (311) 
None

>  <tags>  (311) 
[]

>  <ref_mols>  (311) 
c0894a,c1134a

>  <alias>  (311) 
None

>  <original ID>  (311) 
DNKORNSFUCJWJH-UHFFFAOYSA-N

>  <exports>  (311) 
['/opt/xchem-fragalysis-2/maxwin/CHIKV_HIPPO/hippo_prod/CHIKV_prod11b_recipes/Recipe_1GFD8FK_poses.sdf', '/opt/xchem-fragalysis-2/maxwin/CHIKV_HIPPO/hippo_prod/CHIKV_prod11c_recipes/Recipe_1GJWBFH_poses.sdf', '/opt/xchem-fragalysis-2/maxwin/CHIKV_HIPPO/hippo_prod/CHIKV_prod11c_recipes/Recipe_1GJXK8G_poses.sdf', '/opt/xchem-fragalysis-2/maxwin/CHIKV_HIPPO/hippo_prod/CHIKV_prod11c_recipes/Recipe_1GJXW46_poses.sdf']

>  <method>  (311) 
None

>  <submitter_email>  (311) 
None

>  <submitter_name>  (311) 
None

$$$$
IXJSJFAULWMXMP-UHFFFAOYSA-N
     RDKit          3D

 14 15  0  0  0  0  0  0  0  0999 V2000
   14.8809   13.7116   12.0907 C   0  0  0  0  0  0  0  0  0  0  0  0
   14.3106   12.6835   11.1095 C   0  0  0  0  0  0  0  0  0  0  0  0
   12.8447   12.9601   11.0381 C   0  0  0  0  0  0  0  0  0  0  0  0
   14.6375   11.2974   11.5266 C   0  0  0  0  0  0  0  0  0  0  0  0
   14.8467   10.9832   12.7835 N   0  0  0  0  0  0  0  0  0  0  0  0
   14.9120    9.6254   12.8307 C   0  0  0  0  0  0  0  0  0  0  0  0
   15.0461    8.7776   13.9312 C   0  0  0  0  0  0  0  0  0  0  0  0
   15.1855    9.5085   15.6601 Br  0  0  0  0  0  0  0  0  0  0  0  0
   15.0637    7.3978   13.7188 C   0  0  0  0  0  0  0  0  0  0  0  0
   14.9356    6.8724   12.4290 C   0  0  0  0  0  0  0  0  0  0  0  0
   14.8005    7.7009   11.3141 C   0  0  0  0  0  0  0  0  0  0  0  0
   14.8121    9.0798   11.5549 C   0  0  0  0  0  0  0  0  0  0  0  0
   14.7430   10.1710   10.7257 N   0  0  0  0  0  0  0  0  0  0  0  0
   14.6292   10.0471    9.2973 C   0  0  0  0  0  0  0  0  0  0  0  0
  1  2  1  0
  2  3  1  0
  2  4  1  0
  4  5  2  0
  5  6  1  0
  6  7  2  0
  7  8  1  0
  7  9  1  0
  9 10  2  0
 10 11  1  0
 11 12  2  0
 12 13  1  0
 13 14  1  0
 13  4  1  0
 12  6  1  0
M  END
>  <HIPPO ID>  (312) 
101612

>  <ref_url>  (312) 
None

>  <ref_pdb>  (312) 
c0300a

>  <inchikey>  (312) 
IXJSJFAULWMXMP-UHFFFAOYSA-N

>  <original SMILES>  (312) 
CC(C)c1nc2c(Br)cccc2n1C

>  <generation_date>  (312) 
None

>  <tags>  (312) 
[]

>  <ref_mols>  (312) 
c0894a,c1134a

>  <alias>  (312) 
None

>  <original ID>  (312) 
IXJSJFAULWMXMP-UHFFFAOYSA-N

>  <exports>  (312) 
['/opt/xchem-fragalysis-2/maxwin/CHIKV_HIPPO/hippo_prod/CHIKV_prod11b_recipes/Recipe_1GFD8FK_poses.sdf', '/opt/xchem-fragalysis-2/maxwin/CHIKV_HIPPO/hippo_prod/CHIKV_prod11c_recipes/Recipe_1GJWBFH_poses.sdf', '/opt/xchem-fragalysis-2/maxwin/CHIKV_HIPPO/hippo_prod/CHIKV_prod11c_recipes/Recipe_1GJXK8G_poses.sdf', '/opt/xchem-fragalysis-2/maxwin/CHIKV_HIPPO/hippo_prod/CHIKV_prod11c_recipes/Recipe_1GJXW46_poses.sdf']

>  <method>  (312) 
None

>  <submitter_email>  (312) 
None

>  <submitter_name>  (312) 
None

$$$$
VYIURGJIPNCJKA-UHFFFAOYSA-N
     RDKit          3D

 14 16  0  0  0  0  0  0  0  0999 V2000
   14.5366    9.8987    9.1851 C   0  0  0  0  0  0  0  0  0  0  0  0
   14.7311   10.1293   10.5907 N   0  0  0  0  0  0  0  0  0  0  0  0
   14.6255   11.2761   11.3218 C   0  0  0  0  0  0  0  0  0  0  0  0
   13.8795   12.6677   10.7600 Cl  0  0  0  0  0  0  0  0  0  0  0  0
   14.9063   11.1154   12.5839 N   0  0  0  0  0  0  0  0  0  0  0  0
   14.9492    9.7564   12.7367 C   0  0  0  0  0  0  0  0  0  0  0  0
   15.0532    9.0050   13.9211 C   0  0  0  0  0  0  0  0  0  0  0  0
   15.1329    9.7840   15.2001 C   0  0  0  0  0  0  0  0  0  0  0  0
   16.4649    9.8987   15.9000 C   0  0  0  0  0  0  0  0  0  0  0  0
   15.3454    9.1341   16.5424 C   0  0  0  0  0  0  0  0  0  0  0  0
   15.0409    7.6052   13.7801 C   0  0  0  0  0  0  0  0  0  0  0  0
   14.9213    6.9797   12.5344 C   0  0  0  0  0  0  0  0  0  0  0  0
   14.8052    7.7181   11.3621 C   0  0  0  0  0  0  0  0  0  0  0  0
   14.8325    9.1075   11.5037 C   0  0  0  0  0  0  0  0  0  0  0  0
  1  2  1  0
  2  3  1  0
  3  4  1  0
  3  5  2  0
  5  6  1  0
  6  7  2  0
  7  8  1  0
  8  9  1  0
  9 10  1  0
  7 11  1  0
 11 12  2  0
 12 13  1  0
 13 14  2  0
 14  2  1  0
 14  6  1  0
 10  8  1  0
M  END
>  <HIPPO ID>  (313) 
101613

>  <ref_url>  (313) 
None

>  <ref_pdb>  (313) 
c0300a

>  <inchikey>  (313) 
VYIURGJIPNCJKA-UHFFFAOYSA-N

>  <original SMILES>  (313) 
Cn1c(Cl)nc2c(C3CC3)cccc21

>  <generation_date>  (313) 
None

>  <tags>  (313) 
[]

>  <ref_mols>  (313) 
c0894a,c1134a

>  <alias>  (313) 
None

>  <original ID>  (313) 
VYIURGJIPNCJKA-UHFFFAOYSA-N

>  <exports>  (313) 
['/opt/xchem-fragalysis-2/maxwin/CHIKV_HIPPO/hippo_prod/CHIKV_prod11c_recipes/Recipe_1GJWBFH_poses.sdf', '/opt/xchem-fragalysis-2/maxwin/CHIKV_HIPPO/hippo_prod/CHIKV_prod11c_recipes/Recipe_1GJXK8G_poses.sdf', '/opt/xchem-fragalysis-2/maxwin/CHIKV_HIPPO/hippo_prod/CHIKV_prod11c_recipes/Recipe_1GJXW46_poses.sdf']

>  <method>  (313) 
None

>  <submitter_email>  (313) 
None

>  <submitter_name>  (313) 
None

$$$$
DJRXQXKRFFYMDY-UHFFFAOYSA-N
     RDKit          3D

 15 17  0  0  0  0  0  0  0  0999 V2000
   14.6841   10.1653    9.5298 C   0  0  0  0  0  0  0  0  0  0  0  0
   14.7888   10.0292   10.9566 N   0  0  0  0  0  0  0  0  0  0  0  0
   14.7424   10.9686   11.9599 C   0  0  0  0  0  0  0  0  0  0  0  0
   13.9454   12.2319   12.1720 C   0  0  0  0  0  0  0  0  0  0  0  0
   13.2945   12.9446   11.0308 C   0  0  0  0  0  0  0  0  0  0  0  0
   13.6419   14.1775   11.6883 O   0  0  0  0  0  0  0  0  0  0  0  0
   14.6880   13.5221   12.4018 C   0  0  0  0  0  0  0  0  0  0  0  0
   15.1644   10.4678   13.0886 N   0  0  0  0  0  0  0  0  0  0  0  0
   15.0458    9.1300   12.9240 C   0  0  0  0  0  0  0  0  0  0  0  0
   15.1305    8.1294   13.8844 C   0  0  0  0  0  0  0  0  0  0  0  0
   15.3218    8.6260   15.6907 Br  0  0  0  0  0  0  0  0  0  0  0  0
   15.0363    6.8050   13.4665 C   0  0  0  0  0  0  0  0  0  0  0  0
   14.8472    6.4963   12.1122 C   0  0  0  0  0  0  0  0  0  0  0  0
   14.7317    7.4898   11.1356 C   0  0  0  0  0  0  0  0  0  0  0  0
   14.8330    8.8061   11.5860 C   0  0  0  0  0  0  0  0  0  0  0  0
  1  2  1  0
  2  3  1  0
  3  4  1  0
  4  5  1  0
  5  6  1  0
  6  7  1  0
  3  8  2  0
  8  9  1  0
  9 10  2  0
 10 11  1  0
 10 12  1  0
 12 13  2  0
 13 14  1  0
 14 15  2  0
 15  2  1  0
  7  4  1  0
 15  9  1  0
M  END
>  <HIPPO ID>  (314) 
101627

>  <ref_url>  (314) 
None

>  <ref_pdb>  (314) 
c0300a

>  <inchikey>  (314) 
DJRXQXKRFFYMDY-UHFFFAOYSA-N

>  <original SMILES>  (314) 
Cn1c(C2COC2)nc2c(Br)cccc21

>  <generation_date>  (314) 
None

>  <tags>  (314) 
[]

>  <ref_mols>  (314) 
c0894a,c1134a

>  <alias>  (314) 
None

>  <original ID>  (314) 
DJRXQXKRFFYMDY-UHFFFAOYSA-N

>  <exports>  (314) 
['/opt/xchem-fragalysis-2/maxwin/CHIKV_HIPPO/hippo_prod/CHIKV_prod11c_recipes/Recipe_1GJWBFH_poses.sdf', '/opt/xchem-fragalysis-2/maxwin/CHIKV_HIPPO/hippo_prod/CHIKV_prod11c_recipes/Recipe_1GJXK8G_poses.sdf', '/opt/xchem-fragalysis-2/maxwin/CHIKV_HIPPO/hippo_prod/CHIKV_prod11c_recipes/Recipe_1GJXW46_poses.sdf']

>  <method>  (314) 
None

>  <submitter_email>  (314) 
None

>  <submitter_name>  (314) 
None

$$$$
GNYBCXPIJWQELK-UHFFFAOYSA-N
     RDKit          3D

 15 17  0  0  0  0  0  0  0  0999 V2000
   14.5319    9.8986    9.2055 C   0  0  0  0  0  0  0  0  0  0  0  0
   14.7208   10.1455   10.6099 N   0  0  0  0  0  0  0  0  0  0  0  0
   14.6002   11.2986   11.3281 C   0  0  0  0  0  0  0  0  0  0  0  0
   13.8498   12.6803   10.7522 Cl  0  0  0  0  0  0  0  0  0  0  0  0
   14.8728   11.1528   12.5933 N   0  0  0  0  0  0  0  0  0  0  0  0
   14.9551    9.8020   12.7615 C   0  0  0  0  0  0  0  0  0  0  0  0
   15.1036    9.0735   13.9519 C   0  0  0  0  0  0  0  0  0  0  0  0
   15.1648    9.8652   15.2909 C   0  0  0  0  0  0  0  0  0  0  0  0
   15.5803   11.3496   15.3842 C   0  0  0  0  0  0  0  0  0  0  0  0
   16.3216   11.0705   16.6071 O   0  0  0  0  0  0  0  0  0  0  0  0
   16.3785    9.6708   16.2171 C   0  0  0  0  0  0  0  0  0  0  0  0
   15.1228    7.6688   13.8220 C   0  0  0  0  0  0  0  0  0  0  0  0
   14.9882    7.0234   12.5890 C   0  0  0  0  0  0  0  0  0  0  0  0
   14.8326    7.7453   11.4115 C   0  0  0  0  0  0  0  0  0  0  0  0
   14.8389    9.1369   11.5368 C   0  0  0  0  0  0  0  0  0  0  0  0
  1  2  1  0
  2  3  1  0
  3  4  1  0
  3  5  2  0
  5  6  1  0
  6  7  2  0
  7  8  1  0
  8  9  1  0
  9 10  1  0
 10 11  1  0
  7 12  1  0
 12 13  2  0
 13 14  1  0
 14 15  2  0
 15  2  1  0
 15  6  1  0
 11  8  1  0
M  END
>  <HIPPO ID>  (315) 
101628

>  <ref_url>  (315) 
None

>  <ref_pdb>  (315) 
c0300a

>  <inchikey>  (315) 
GNYBCXPIJWQELK-UHFFFAOYSA-N

>  <original SMILES>  (315) 
Cn1c(Cl)nc2c(C3COC3)cccc21

>  <generation_date>  (315) 
None

>  <tags>  (315) 
[]

>  <ref_mols>  (315) 
c0894a,c1134a

>  <alias>  (315) 
None

>  <original ID>  (315) 
GNYBCXPIJWQELK-UHFFFAOYSA-N

>  <exports>  (315) 
['/opt/xchem-fragalysis-2/maxwin/CHIKV_HIPPO/hippo_prod/CHIKV_prod11c_recipes/Recipe_1GJWBFH_poses.sdf', '/opt/xchem-fragalysis-2/maxwin/CHIKV_HIPPO/hippo_prod/CHIKV_prod11c_recipes/Recipe_1GJXK8G_poses.sdf', '/opt/xchem-fragalysis-2/maxwin/CHIKV_HIPPO/hippo_prod/CHIKV_prod11c_recipes/Recipe_1GJXW46_poses.sdf']

>  <method>  (315) 
None

>  <submitter_email>  (315) 
None

>  <submitter_name>  (315) 
None

$$$$
XDAUNVVQVWBJRY-UHFFFAOYSA-N
     RDKit          3D

 15 16  0  0  0  0  0  0  0  0999 V2000
   14.4467    9.7443    9.0659 C   0  0  0  0  0  0  0  0  0  0  0  0
   14.7029    9.9839   10.4578 N   0  0  0  0  0  0  0  0  0  0  0  0
   14.6593   11.1462   11.1641 C   0  0  0  0  0  0  0  0  0  0  0  0
   13.9881   12.5572   10.5782 Cl  0  0  0  0  0  0  0  0  0  0  0  0
   14.9592   11.0042   12.4203 N   0  0  0  0  0  0  0  0  0  0  0  0
   14.9845    9.6526   12.6057 C   0  0  0  0  0  0  0  0  0  0  0  0
   15.1605    8.9329   13.7999 C   0  0  0  0  0  0  0  0  0  0  0  0
   15.3260    9.5665   15.1852 C   0  0  0  0  0  0  0  0  0  0  0  0
   14.1431    9.1050   16.0451 C   0  0  0  0  0  0  0  0  0  0  0  0
   15.3565   11.1116   15.2046 C   0  0  0  0  0  0  0  0  0  0  0  0
   16.6327    9.0841   15.8364 C   0  0  0  0  0  0  0  0  0  0  0  0
   15.1476    7.5205   13.6545 C   0  0  0  0  0  0  0  0  0  0  0  0
   14.9641    6.8745   12.4283 C   0  0  0  0  0  0  0  0  0  0  0  0
   14.7880    7.5960   11.2586 C   0  0  0  0  0  0  0  0  0  0  0  0
   14.8209    8.9831   11.3867 C   0  0  0  0  0  0  0  0  0  0  0  0
  1  2  1  0
  2  3  1  0
  3  4  1  0
  3  5  2  0
  5  6  1  0
  6  7  2  0
  7  8  1  0
  8  9  1  0
  8 10  1  0
  8 11  1  0
  7 12  1  0
 12 13  2  0
 13 14  1  0
 14 15  2  0
 15  2  1  0
 15  6  1  0
M  END
>  <HIPPO ID>  (316) 
101632

>  <ref_url>  (316) 
None

>  <ref_pdb>  (316) 
c0300a

>  <inchikey>  (316) 
XDAUNVVQVWBJRY-UHFFFAOYSA-N

>  <original SMILES>  (316) 
Cn1c(Cl)nc2c(C(C)(C)C)cccc21

>  <generation_date>  (316) 
None

>  <tags>  (316) 
[]

>  <ref_mols>  (316) 
c0894a,c1134a

>  <alias>  (316) 
None

>  <original ID>  (316) 
XDAUNVVQVWBJRY-UHFFFAOYSA-N

>  <exports>  (316) 
['/opt/xchem-fragalysis-2/maxwin/CHIKV_HIPPO/hippo_prod/CHIKV_prod11b_recipes/Recipe_1GFD8FK_poses.sdf', '/opt/xchem-fragalysis-2/maxwin/CHIKV_HIPPO/hippo_prod/CHIKV_prod11c_recipes/Recipe_1GJWBFH_poses.sdf', '/opt/xchem-fragalysis-2/maxwin/CHIKV_HIPPO/hippo_prod/CHIKV_prod11c_recipes/Recipe_1GJXK8G_poses.sdf', '/opt/xchem-fragalysis-2/maxwin/CHIKV_HIPPO/hippo_prod/CHIKV_prod11c_recipes/Recipe_1GJXW46_poses.sdf']

>  <method>  (316) 
None

>  <submitter_email>  (316) 
None

>  <submitter_name>  (316) 
None

$$$$
YRIQZUUWTZAASN-HCJPZQEFSA-N
     RDKit          3D

 15 18  0  0  0  0  0  0  0  0999 V2000
   14.4236    9.7254    9.0846 C   0  0  0  0  0  0  0  0  0  0  0  0
   14.6857    9.9437   10.4797 N   0  0  0  0  0  0  0  0  0  0  0  0
   14.6586   11.1002   11.1986 C   0  0  0  0  0  0  0  0  0  0  0  0
   14.0207   12.5298   10.6117 Cl  0  0  0  0  0  0  0  0  0  0  0  0
   14.9725   10.9427   12.4513 N   0  0  0  0  0  0  0  0  0  0  0  0
   15.0306    9.5831   12.6160 C   0  0  0  0  0  0  0  0  0  0  0  0
   15.3035    8.8278   13.7765 C   0  0  0  0  0  0  0  0  0  0  0  0
   15.6128    9.4417   15.0852 C   0  0  1  0  0  0  0  0  0  0  0  0
   14.2647    9.9876   15.5506 C   0  0  0  0  0  0  0  0  0  0  0  0
   15.4588   10.3927   16.2527 C   0  0  2  0  0  0  0  0  0  0  0  0
   16.3207   10.7776   15.1287 C   0  0  0  0  0  0  0  0  0  0  0  0
   15.2765    7.4253   13.6230 C   0  0  0  0  0  0  0  0  0  0  0  0
   15.0124    6.8011   12.4014 C   0  0  0  0  0  0  0  0  0  0  0  0
   14.7790    7.5436   11.2519 C   0  0  0  0  0  0  0  0  0  0  0  0
   14.8165    8.9306   11.3943 C   0  0  0  0  0  0  0  0  0  0  0  0
  1  2  1  0
  2  3  1  0
  3  4  1  0
  3  5  2  0
  5  6  1  0
  6  7  2  0
  8  7  1  6
  8  9  1  0
 10  9  1  6
 10 11  1  0
  7 12  1  0
 12 13  2  0
 13 14  1  0
 14 15  2  0
 15  2  1  0
 15  6  1  0
 10  8  1  0
 11  8  1  0
M  END
>  <HIPPO ID>  (317) 
101640

>  <ref_url>  (317) 
None

>  <ref_pdb>  (317) 
c0300a

>  <inchikey>  (317) 
YRIQZUUWTZAASN-HCJPZQEFSA-N

>  <original SMILES>  (317) 
Cn1c(Cl)nc2c1cccc2[C@]12C[C@@H]1C2

>  <generation_date>  (317) 
None

>  <tags>  (317) 
[]

>  <ref_mols>  (317) 
c0894a,c1134a

>  <alias>  (317) 
None

>  <original ID>  (317) 
YRIQZUUWTZAASN-HCJPZQEFSA-N

>  <exports>  (317) 
['/opt/xchem-fragalysis-2/maxwin/CHIKV_HIPPO/hippo_prod/CHIKV_prod11c_recipes/Recipe_1GJWBFH_poses.sdf', '/opt/xchem-fragalysis-2/maxwin/CHIKV_HIPPO/hippo_prod/CHIKV_prod11c_recipes/Recipe_1GJXK8G_poses.sdf', '/opt/xchem-fragalysis-2/maxwin/CHIKV_HIPPO/hippo_prod/CHIKV_prod11c_recipes/Recipe_1GJXW46_poses.sdf']

>  <method>  (317) 
None

>  <submitter_email>  (317) 
None

>  <submitter_name>  (317) 
None

$$$$
WCTGHOGOHKPSRC-HCJPZQEFSA-N
     RDKit          3D

 15 18  0  0  0  0  0  0  0  0999 V2000
   14.5978    9.9840    9.2185 C   0  0  0  0  0  0  0  0  0  0  0  0
   14.7883   10.0470   10.6383 N   0  0  0  0  0  0  0  0  0  0  0  0
   14.8008   11.1407   11.4702 C   0  0  0  0  0  0  0  0  0  0  0  0
   14.4001   12.6128   11.2508 C   0  0  2  0  0  0  0  0  0  0  0  0
   13.0067   13.0107   10.9616 C   0  0  0  0  0  0  0  0  0  0  0  0
   13.4289   13.0613   12.3705 C   0  0  2  0  0  0  0  0  0  0  0  0
   14.7299   13.6899   12.2597 C   0  0  0  0  0  0  0  0  0  0  0  0
   15.0727   10.7907   12.7041 N   0  0  0  0  0  0  0  0  0  0  0  0
   14.9732    9.4385   12.7270 C   0  0  0  0  0  0  0  0  0  0  0  0
   15.0318    8.5697   13.8162 C   0  0  0  0  0  0  0  0  0  0  0  0
   15.1892    9.2732   15.5564 Br  0  0  0  0  0  0  0  0  0  0  0  0
   14.9548    7.1985   13.5774 C   0  0  0  0  0  0  0  0  0  0  0  0
   14.8053    6.7092   12.2743 C   0  0  0  0  0  0  0  0  0  0  0  0
   14.7212    7.5638   11.1723 C   0  0  0  0  0  0  0  0  0  0  0  0
   14.8150    8.9315   11.4392 C   0  0  0  0  0  0  0  0  0  0  0  0
  1  2  1  0
  2  3  1  0
  4  3  1  1
  4  5  1  0
  6  5  1  6
  6  7  1  0
  3  8  2  0
  8  9  1  0
  9 10  2  0
 10 11  1  0
 10 12  1  0
 12 13  2  0
 13 14  1  0
 14 15  2  0
 15  2  1  0
  6  4  1  0
 15  9  1  0
  7  4  1  0
M  END
>  <HIPPO ID>  (318) 
101641

>  <ref_url>  (318) 
None

>  <ref_pdb>  (318) 
c0300a

>  <inchikey>  (318) 
WCTGHOGOHKPSRC-HCJPZQEFSA-N

>  <original SMILES>  (318) 
Cn1c2cccc(Br)c2nc1[C@]12C[C@H]1C2

>  <generation_date>  (318) 
None

>  <tags>  (318) 
[]

>  <ref_mols>  (318) 
c0894a,c1134a

>  <alias>  (318) 
None

>  <original ID>  (318) 
WCTGHOGOHKPSRC-HCJPZQEFSA-N

>  <exports>  (318) 
['/opt/xchem-fragalysis-2/maxwin/CHIKV_HIPPO/hippo_prod/CHIKV_prod11c_recipes/Recipe_1GJWBFH_poses.sdf', '/opt/xchem-fragalysis-2/maxwin/CHIKV_HIPPO/hippo_prod/CHIKV_prod11c_recipes/Recipe_1GJXK8G_poses.sdf', '/opt/xchem-fragalysis-2/maxwin/CHIKV_HIPPO/hippo_prod/CHIKV_prod11c_recipes/Recipe_1GJXW46_poses.sdf']

>  <method>  (318) 
None

>  <submitter_email>  (318) 
None

>  <submitter_name>  (318) 
None

$$$$
LBYLPXYZZWVZCS-HCJPZQEFSA-N
     RDKit          3D

 15 18  0  0  0  0  0  0  0  0999 V2000
   14.4480    9.6862    8.9210 C   0  0  0  0  0  0  0  0  0  0  0  0
   14.6807   10.0674   10.2813 N   0  0  0  0  0  0  0  0  0  0  0  0
   14.6318   11.3133   10.8338 C   0  0  0  0  0  0  0  0  0  0  0  0
   14.2819   12.3930   10.1757 O   0  0  0  0  0  0  0  0  0  0  0  0
   14.8954   11.3105   12.1128 N   0  0  0  0  0  0  0  0  0  0  0  0
   14.9580    9.9651   12.4411 C   0  0  0  0  0  0  0  0  0  0  0  0
   15.1826    9.3287   13.6805 C   0  0  0  0  0  0  0  0  0  0  0  0
   15.5544   10.1748   14.8285 C   0  0  2  0  0  0  0  0  0  0  0  0
   14.7882   11.3056   15.3964 C   0  0  0  0  0  0  0  0  0  0  0  0
   14.8003   10.0119   16.1410 C   0  0  2  0  0  0  0  0  0  0  0  0
   16.2684    9.7705   16.0669 C   0  0  0  0  0  0  0  0  0  0  0  0
   15.1330    7.9161   13.6983 C   0  0  0  0  0  0  0  0  0  0  0  0
   14.9051    7.1593   12.5486 C   0  0  0  0  0  0  0  0  0  0  0  0
   14.7417    7.7737   11.3153 C   0  0  0  0  0  0  0  0  0  0  0  0
   14.7897    9.1708   11.3042 C   0  0  0  0  0  0  0  0  0  0  0  0
  1  2  1  0
  2  3  1  0
  3  4  1  0
  3  5  2  0
  5  6  1  0
  6  7  2  0
  8  7  1  6
  8  9  1  0
 10  9  1  1
 10 11  1  0
  7 12  1  0
 12 13  2  0
 13 14  1  0
 14 15  2  0
 15  2  1  0
 15  6  1  0
 10  8  1  0
 11  8  1  0
M  END
>  <HIPPO ID>  (319) 
101724

>  <ref_url>  (319) 
None

>  <ref_pdb>  (319) 
c0300a

>  <inchikey>  (319) 
LBYLPXYZZWVZCS-HCJPZQEFSA-N

>  <original SMILES>  (319) 
Cn1c(O)nc2c1cccc2[C@]12C[C@H]1C2

>  <generation_date>  (319) 
None

>  <tags>  (319) 
[]

>  <ref_mols>  (319) 
c0894a,c1134a

>  <alias>  (319) 
None

>  <original ID>  (319) 
LBYLPXYZZWVZCS-HCJPZQEFSA-N

>  <exports>  (319) 
['/opt/xchem-fragalysis-2/maxwin/CHIKV_HIPPO/hippo_prod/CHIKV_prod11c_recipes/Recipe_1GJWBFH_poses.sdf', '/opt/xchem-fragalysis-2/maxwin/CHIKV_HIPPO/hippo_prod/CHIKV_prod11c_recipes/Recipe_1GJXK8G_poses.sdf', '/opt/xchem-fragalysis-2/maxwin/CHIKV_HIPPO/hippo_prod/CHIKV_prod11c_recipes/Recipe_1GJXW46_poses.sdf']

>  <method>  (319) 
None

>  <submitter_email>  (319) 
None

>  <submitter_name>  (319) 
None

$$$$
KNQWAKGBDZQWQT-UHFFFAOYSA-N
     RDKit          3D

 15 17  0  0  0  0  0  0  0  0999 V2000
   14.5834    9.7371    8.9030 C   0  0  0  0  0  0  0  0  0  0  0  0
   14.7410   10.0571   10.2887 N   0  0  0  0  0  0  0  0  0  0  0  0
   14.6229   11.2680   10.9044 C   0  0  0  0  0  0  0  0  0  0  0  0
   14.3138   12.3775   10.2730 O   0  0  0  0  0  0  0  0  0  0  0  0
   14.7470   11.1875   12.2056 N   0  0  0  0  0  0  0  0  0  0  0  0
   14.8480    9.8271   12.4567 C   0  0  0  0  0  0  0  0  0  0  0  0
   14.8889    9.1054   13.6691 C   0  0  0  0  0  0  0  0  0  0  0  0
   14.6597    9.8568   14.9944 C   0  0  0  0  0  0  0  0  0  0  0  0
   15.5295    9.5246   16.2176 C   0  0  0  0  0  0  0  0  0  0  0  0
   15.4440   10.9118   16.6469 O   0  0  0  0  0  0  0  0  0  0  0  0
   15.1436   11.2820   15.2646 C   0  0  0  0  0  0  0  0  0  0  0  0
   14.9789    7.6951   13.5822 C   0  0  0  0  0  0  0  0  0  0  0  0
   14.9630    7.0145   12.3686 C   0  0  0  0  0  0  0  0  0  0  0  0
   14.8578    7.7097   11.1754 C   0  0  0  0  0  0  0  0  0  0  0  0
   14.8309    9.1051   11.2610 C   0  0  0  0  0  0  0  0  0  0  0  0
  1  2  1  0
  2  3  1  0
  3  4  1  0
  3  5  2  0
  5  6  1  0
  6  7  2  0
  7  8  1  0
  8  9  1  0
  9 10  1  0
 10 11  1  0
  7 12  1  0
 12 13  2  0
 13 14  1  0
 14 15  2  0
 15  2  1  0
 15  6  1  0
 11  8  1  0
M  END
>  <HIPPO ID>  (320) 
101746

>  <ref_url>  (320) 
None

>  <ref_pdb>  (320) 
c0300a

>  <inchikey>  (320) 
KNQWAKGBDZQWQT-UHFFFAOYSA-N

>  <original SMILES>  (320) 
Cn1c(O)nc2c(C3COC3)cccc21

>  <generation_date>  (320) 
None

>  <tags>  (320) 
[]

>  <ref_mols>  (320) 
c0894a,c1134a

>  <alias>  (320) 
None

>  <original ID>  (320) 
KNQWAKGBDZQWQT-UHFFFAOYSA-N

>  <exports>  (320) 
['/opt/xchem-fragalysis-2/maxwin/CHIKV_HIPPO/hippo_prod/CHIKV_prod11c_recipes/Recipe_1GJWBFH_poses.sdf', '/opt/xchem-fragalysis-2/maxwin/CHIKV_HIPPO/hippo_prod/CHIKV_prod11c_recipes/Recipe_1GJXK8G_poses.sdf', '/opt/xchem-fragalysis-2/maxwin/CHIKV_HIPPO/hippo_prod/CHIKV_prod11c_recipes/Recipe_1GJXW46_poses.sdf']

>  <method>  (320) 
None

>  <submitter_email>  (320) 
None

>  <submitter_name>  (320) 
None

$$$$
OECAZDKJZSGKQB-UHFFFAOYSA-N
     RDKit          3D

 15 16  0  0  0  0  0  0  0  0999 V2000
   14.5232    9.8152    8.9492 C   0  0  0  0  0  0  0  0  0  0  0  0
   14.7045   10.1792   10.3230 N   0  0  0  0  0  0  0  0  0  0  0  0
   14.6041   11.3996   10.9183 C   0  0  0  0  0  0  0  0  0  0  0  0
   14.2409   12.4959   10.2947 O   0  0  0  0  0  0  0  0  0  0  0  0
   14.8309   11.3496   12.2044 N   0  0  0  0  0  0  0  0  0  0  0  0
   14.9382    9.9973   12.4909 C   0  0  0  0  0  0  0  0  0  0  0  0
   15.1262    9.3172   13.7189 C   0  0  0  0  0  0  0  0  0  0  0  0
   15.2841    9.9668   15.0988 C   0  0  0  0  0  0  0  0  0  0  0  0
   14.2662    9.3220   16.0551 C   0  0  0  0  0  0  0  0  0  0  0  0
   15.0618   11.4913   15.1033 C   0  0  0  0  0  0  0  0  0  0  0  0
   16.6910    9.7022   15.6648 C   0  0  0  0  0  0  0  0  0  0  0  0
   15.1643    7.8917   13.6341 C   0  0  0  0  0  0  0  0  0  0  0  0
   14.9924    7.1804   12.4484 C   0  0  0  0  0  0  0  0  0  0  0  0
   14.8088    7.8501   11.2549 C   0  0  0  0  0  0  0  0  0  0  0  0
   14.8207    9.2471   11.3163 C   0  0  0  0  0  0  0  0  0  0  0  0
  1  2  1  0
  2  3  1  0
  3  4  1  0
  3  5  2  0
  5  6  1  0
  6  7  2  0
  7  8  1  0
  8  9  1  0
  8 10  1  0
  8 11  1  0
  7 12  1  0
 12 13  2  0
 13 14  1  0
 14 15  2  0
 15  2  1  0
 15  6  1  0
M  END
>  <HIPPO ID>  (321) 
101747

>  <ref_url>  (321) 
None

>  <ref_pdb>  (321) 
c0300a

>  <inchikey>  (321) 
OECAZDKJZSGKQB-UHFFFAOYSA-N

>  <original SMILES>  (321) 
Cn1c(O)nc2c(C(C)(C)C)cccc21

>  <generation_date>  (321) 
None

>  <tags>  (321) 
[]

>  <ref_mols>  (321) 
c0894a,c1134a

>  <alias>  (321) 
None

>  <original ID>  (321) 
OECAZDKJZSGKQB-UHFFFAOYSA-N

>  <exports>  (321) 
['/opt/xchem-fragalysis-2/maxwin/CHIKV_HIPPO/hippo_prod/CHIKV_prod11b_recipes/Recipe_1GFD8FK_poses.sdf', '/opt/xchem-fragalysis-2/maxwin/CHIKV_HIPPO/hippo_prod/CHIKV_prod11c_recipes/Recipe_1GJWBFH_poses.sdf', '/opt/xchem-fragalysis-2/maxwin/CHIKV_HIPPO/hippo_prod/CHIKV_prod11c_recipes/Recipe_1GJXK8G_poses.sdf', '/opt/xchem-fragalysis-2/maxwin/CHIKV_HIPPO/hippo_prod/CHIKV_prod11c_recipes/Recipe_1GJXW46_poses.sdf']

>  <method>  (321) 
None

>  <submitter_email>  (321) 
None

>  <submitter_name>  (321) 
None

$$$$
PVFWHGYGVRSMOL-ZDUSSCGKSA-N
     RDKit          3D

 16 18  0  0  0  0  0  0  0  0999 V2000
   14.5740    9.8078    8.8909 C   0  0  0  0  0  0  0  0  0  0  0  0
   14.7231   10.1160   10.2804 N   0  0  0  0  0  0  0  0  0  0  0  0
   14.6583   11.3193   10.9164 C   0  0  0  0  0  0  0  0  0  0  0  0
   14.8199   11.1764   12.2147 N   0  0  0  0  0  0  0  0  0  0  0  0
   14.9113    9.8155   12.4314 C   0  0  0  0  0  0  0  0  0  0  0  0
   15.0411    9.0725   13.6259 C   0  0  0  0  0  0  0  0  0  0  0  0
   14.9445    9.6493   15.0226 C   0  0  1  0  0  0  0  0  0  0  0  0
   13.7908    8.9276   15.7509 C   0  0  0  0  0  0  0  0  0  0  0  0
   16.1977    9.4984   15.8692 C   0  0  0  0  0  0  0  0  0  0  0  0
   15.9718   10.5209   16.9757 C   0  0  0  0  0  0  0  0  0  0  0  0
   15.0411   11.4959   16.4808 O   0  0  0  0  0  0  0  0  0  0  0  0
   14.7944   11.1711   15.1033 C   0  0  0  0  0  0  0  0  0  0  0  0
   15.1708    7.6632   13.4781 C   0  0  0  0  0  0  0  0  0  0  0  0
   15.0587    7.0145   12.2512 C   0  0  0  0  0  0  0  0  0  0  0  0
   14.8526    7.7401   11.0916 C   0  0  0  0  0  0  0  0  0  0  0  0
   14.8328    9.1319   11.2208 C   0  0  0  0  0  0  0  0  0  0  0  0
  1  2  1  0
  2  3  1  0
  3  4  2  0
  4  5  1  0
  5  6  2  0
  6  7  1  0
  7  8  1  1
  7  9  1  0
  9 10  1  0
 10 11  1  0
 11 12  1  0
  6 13  1  0
 13 14  2  0
 14 15  1  0
 15 16  2  0
 16  2  1  0
 16  5  1  0
 12  7  1  0
M  END
>  <HIPPO ID>  (322) 
102422

>  <ref_url>  (322) 
None

>  <ref_pdb>  (322) 
c0300a

>  <inchikey>  (322) 
PVFWHGYGVRSMOL-ZDUSSCGKSA-N

>  <original SMILES>  (322) 
Cn1cnc2c([C@@]3(C)CCOC3)cccc21

>  <generation_date>  (322) 
None

>  <tags>  (322) 
[]

>  <ref_mols>  (322) 
c0894a,c1134a

>  <alias>  (322) 
None

>  <original ID>  (322) 
PVFWHGYGVRSMOL-ZDUSSCGKSA-N

>  <exports>  (322) 
['/opt/xchem-fragalysis-2/maxwin/CHIKV_HIPPO/hippo_prod/CHIKV_prod11c_recipes/Recipe_1GJWBFH_poses.sdf', '/opt/xchem-fragalysis-2/maxwin/CHIKV_HIPPO/hippo_prod/CHIKV_prod11c_recipes/Recipe_1GJXK8G_poses.sdf', '/opt/xchem-fragalysis-2/maxwin/CHIKV_HIPPO/hippo_prod/CHIKV_prod11c_recipes/Recipe_1GJXW46_poses.sdf']

>  <method>  (322) 
None

>  <submitter_email>  (322) 
None

>  <submitter_name>  (322) 
None

$$$$
PVFWHGYGVRSMOL-ZDUSSCGKSA-N
     RDKit          3D

 16 18  0  0  0  0  0  0  0  0999 V2000
   14.4973    9.7597    8.9049 C   0  0  0  0  0  0  0  0  0  0  0  0
   14.6979   10.0887   10.2839 N   0  0  0  0  0  0  0  0  0  0  0  0
   14.6703   11.3101   10.8884 C   0  0  0  0  0  0  0  0  0  0  0  0
   14.8930   11.2040   12.1797 N   0  0  0  0  0  0  0  0  0  0  0  0
   14.9408    9.8487   12.4416 C   0  0  0  0  0  0  0  0  0  0  0  0
   15.1175    9.1466   13.6574 C   0  0  0  0  0  0  0  0  0  0  0  0
   15.2620    9.7821   15.0389 C   0  0  1  0  0  0  0  0  0  0  0  0
   15.0340   11.3130   15.0470 C   0  0  0  0  0  0  0  0  0  0  0  0
   14.3242    9.1060   16.0411 C   0  0  0  0  0  0  0  0  0  0  0  0
   14.9679    9.3884   17.3756 C   0  0  0  0  0  0  0  0  0  0  0  0
   16.3781    9.4267   17.1324 O   0  0  0  0  0  0  0  0  0  0  0  0
   16.6120    9.4967   15.7104 C   0  0  0  0  0  0  0  0  0  0  0  0
   15.1728    7.7260   13.5347 C   0  0  0  0  0  0  0  0  0  0  0  0
   14.9923    7.0440   12.3326 C   0  0  0  0  0  0  0  0  0  0  0  0
   14.7862    7.7400   11.1578 C   0  0  0  0  0  0  0  0  0  0  0  0
   14.8057    9.1330   11.2519 C   0  0  0  0  0  0  0  0  0  0  0  0
  1  2  1  0
  2  3  1  0
  3  4  2  0
  4  5  1  0
  5  6  2  0
  6  7  1  0
  7  8  1  6
  7  9  1  0
  9 10  1  0
 10 11  1  0
 11 12  1  0
  6 13  1  0
 13 14  2  0
 14 15  1  0
 15 16  2  0
 16  2  1  0
 16  5  1  0
 12  7  1  0
M  END
>  <HIPPO ID>  (323) 
102423

>  <ref_url>  (323) 
None

>  <ref_pdb>  (323) 
c0300a

>  <inchikey>  (323) 
PVFWHGYGVRSMOL-ZDUSSCGKSA-N

>  <original SMILES>  (323) 
Cn1cnc2c([C@@]3(C)CCOC3)cccc21

>  <generation_date>  (323) 
None

>  <tags>  (323) 
[]

>  <ref_mols>  (323) 
c0894a,c1134a

>  <alias>  (323) 
None

>  <original ID>  (323) 
PVFWHGYGVRSMOL-ZDUSSCGKSA-N

>  <exports>  (323) 
['/opt/xchem-fragalysis-2/maxwin/CHIKV_HIPPO/hippo_prod/CHIKV_prod11c_recipes/Recipe_1GJWBFH_poses.sdf', '/opt/xchem-fragalysis-2/maxwin/CHIKV_HIPPO/hippo_prod/CHIKV_prod11c_recipes/Recipe_1GJXK8G_poses.sdf', '/opt/xchem-fragalysis-2/maxwin/CHIKV_HIPPO/hippo_prod/CHIKV_prod11c_recipes/Recipe_1GJXW46_poses.sdf']

>  <method>  (323) 
None

>  <submitter_email>  (323) 
None

>  <submitter_name>  (323) 
None

$$$$
XELUDKVLUMESDU-UHFFFAOYSA-N
     RDKit          3D

 16 18  0  0  0  0  0  0  0  0999 V2000
   14.6249    9.8510    8.9421 C   0  0  0  0  0  0  0  0  0  0  0  0
   14.7475   10.2330   10.3186 N   0  0  0  0  0  0  0  0  0  0  0  0
   14.6859   11.4638   10.8939 C   0  0  0  0  0  0  0  0  0  0  0  0
   14.8948   11.3909   12.1896 N   0  0  0  0  0  0  0  0  0  0  0  0
   14.9082   10.0422   12.4955 C   0  0  0  0  0  0  0  0  0  0  0  0
   14.9954    9.3615   13.7366 C   0  0  0  0  0  0  0  0  0  0  0  0
   15.1549   10.1039   15.0779 C   0  0  0  0  0  0  0  0  0  0  0  0
   14.9262    9.2497   16.3212 C   0  0  0  0  0  0  0  0  0  0  0  0
   16.1181    8.3340   16.6237 C   0  0  0  0  0  0  0  0  0  0  0  0
   15.6591    7.0300   16.9660 O   0  0  0  0  0  0  0  0  0  0  0  0
   14.8253   11.5852   15.2150 C   0  0  0  0  0  0  0  0  0  0  0  0
   16.2533   11.1464   15.2046 C   0  0  0  0  0  0  0  0  0  0  0  0
   14.9320    7.9393   13.6410 C   0  0  0  0  0  0  0  0  0  0  0  0
   14.8160    7.2317   12.4455 C   0  0  0  0  0  0  0  0  0  0  0  0
   14.7522    7.9049   11.2452 C   0  0  0  0  0  0  0  0  0  0  0  0
   14.8079    9.2997   11.3155 C   0  0  0  0  0  0  0  0  0  0  0  0
  1  2  1  0
  2  3  1  0
  3  4  2  0
  4  5  1  0
  5  6  2  0
  6  7  1  0
  7  8  1  0
  8  9  1  0
  9 10  1  0
  7 11  1  0
 11 12  1  0
  6 13  1  0
 13 14  2  0
 14 15  1  0
 15 16  2  0
 16  2  1  0
 16  5  1  0
 12  7  1  0
M  END
>  <HIPPO ID>  (324) 
102425

>  <ref_url>  (324) 
None

>  <ref_pdb>  (324) 
c0300a

>  <inchikey>  (324) 
XELUDKVLUMESDU-UHFFFAOYSA-N

>  <original SMILES>  (324) 
Cn1cnc2c(C3(CCO)CC3)cccc21

>  <generation_date>  (324) 
None

>  <tags>  (324) 
[]

>  <ref_mols>  (324) 
c0894a,c1134a

>  <alias>  (324) 
None

>  <original ID>  (324) 
XELUDKVLUMESDU-UHFFFAOYSA-N

>  <exports>  (324) 
['/opt/xchem-fragalysis-2/maxwin/CHIKV_HIPPO/hippo_prod/CHIKV_prod11c_recipes/Recipe_1GJWBFH_poses.sdf', '/opt/xchem-fragalysis-2/maxwin/CHIKV_HIPPO/hippo_prod/CHIKV_prod11c_recipes/Recipe_1GJXK8G_poses.sdf', '/opt/xchem-fragalysis-2/maxwin/CHIKV_HIPPO/hippo_prod/CHIKV_prod11c_recipes/Recipe_1GJXW46_poses.sdf']

>  <method>  (324) 
None

>  <submitter_email>  (324) 
None

>  <submitter_name>  (324) 
None

$$$$
ZDDJHSUSVFXCKN-CYBMUJFWSA-N
     RDKit          3D

 17 19  0  0  0  0  0  0  0  0999 V2000
   14.5247    9.8300    9.0989 C   0  0  0  0  0  0  0  0  0  0  0  0
   14.7068   10.2358   10.4661 N   0  0  0  0  0  0  0  0  0  0  0  0
   14.6093   11.4809   11.0127 C   0  0  0  0  0  0  0  0  0  0  0  0
   14.2301   12.5414   10.3395 O   0  0  0  0  0  0  0  0  0  0  0  0
   14.8744   11.4923   12.2949 N   0  0  0  0  0  0  0  0  0  0  0  0
   14.9707   10.1551   12.6413 C   0  0  0  0  0  0  0  0  0  0  0  0
   15.1985    9.5394   13.8979 C   0  0  0  0  0  0  0  0  0  0  0  0
   15.5393   10.2747   15.1933 C   0  0  2  0  0  0  0  0  0  0  0  0
   17.0692   10.3781   15.3564 C   0  0  0  0  0  0  0  0  0  0  0  0
   14.9566    9.6066   16.4418 C   0  0  0  0  0  0  0  0  0  0  0  0
   14.9962   10.7192   17.4662 C   0  0  0  0  0  0  0  0  0  0  0  0
   14.7983   11.9415   16.7418 O   0  0  0  0  0  0  0  0  0  0  0  0
   14.9336   11.6753   15.3289 C   0  0  0  0  0  0  0  0  0  0  0  0
   15.1937    8.1153   13.8952 C   0  0  0  0  0  0  0  0  0  0  0  0
   14.9711    7.3475   12.7507 C   0  0  0  0  0  0  0  0  0  0  0  0
   14.7826    7.9529   11.5207 C   0  0  0  0  0  0  0  0  0  0  0  0
   14.8178    9.3511   11.5055 C   0  0  0  0  0  0  0  0  0  0  0  0
  1  2  1  0
  2  3  1  0
  3  4  1  0
  3  5  2  0
  5  6  1  0
  6  7  2  0
  7  8  1  0
  8  9  1  1
  8 10  1  0
 10 11  1  0
 11 12  1  0
 12 13  1  0
  7 14  1  0
 14 15  2  0
 15 16  1  0
 16 17  2  0
 17  2  1  0
 17  6  1  0
 13  8  1  0
M  END
>  <HIPPO ID>  (325) 
103228

>  <ref_url>  (325) 
None

>  <ref_pdb>  (325) 
c0300a

>  <inchikey>  (325) 
ZDDJHSUSVFXCKN-CYBMUJFWSA-N

>  <original SMILES>  (325) 
Cn1c(O)nc2c([C@]3(C)CCOC3)cccc21

>  <generation_date>  (325) 
None

>  <tags>  (325) 
[]

>  <ref_mols>  (325) 
c0894a,c1134a

>  <alias>  (325) 
None

>  <original ID>  (325) 
ZDDJHSUSVFXCKN-CYBMUJFWSA-N

>  <exports>  (325) 
['/opt/xchem-fragalysis-2/maxwin/CHIKV_HIPPO/hippo_prod/CHIKV_prod11c_recipes/Recipe_1GJWBFH_poses.sdf', '/opt/xchem-fragalysis-2/maxwin/CHIKV_HIPPO/hippo_prod/CHIKV_prod11c_recipes/Recipe_1GJXK8G_poses.sdf', '/opt/xchem-fragalysis-2/maxwin/CHIKV_HIPPO/hippo_prod/CHIKV_prod11c_recipes/Recipe_1GJXW46_poses.sdf']

>  <method>  (325) 
None

>  <submitter_email>  (325) 
None

>  <submitter_name>  (325) 
None

$$$$
ZDDJHSUSVFXCKN-ZDUSSCGKSA-N
     RDKit          3D

 17 19  0  0  0  0  0  0  0  0999 V2000
   14.4523    9.7252    8.9368 C   0  0  0  0  0  0  0  0  0  0  0  0
   14.6818   10.0664   10.3089 N   0  0  0  0  0  0  0  0  0  0  0  0
   14.6289   11.2907   10.9023 C   0  0  0  0  0  0  0  0  0  0  0  0
   14.2909   12.3913   10.2703 O   0  0  0  0  0  0  0  0  0  0  0  0
   14.8824   11.2384   12.1848 N   0  0  0  0  0  0  0  0  0  0  0  0
   14.9831    9.8833   12.4711 C   0  0  0  0  0  0  0  0  0  0  0  0
   15.2684    9.2003   13.6843 C   0  0  0  0  0  0  0  0  0  0  0  0
   15.5956    9.8644   15.0331 C   0  0  1  0  0  0  0  0  0  0  0  0
   16.1263   11.3030   14.9311 C   0  0  0  0  0  0  0  0  0  0  0  0
   14.3566    9.8560   15.8912 C   0  0  0  0  0  0  0  0  0  0  0  0
   14.3763    8.5483   16.6397 C   0  0  0  0  0  0  0  0  0  0  0  0
   15.7457    8.1549   16.7316 O   0  0  0  0  0  0  0  0  0  0  0  0
   16.5440    9.0476   15.9287 C   0  0  0  0  0  0  0  0  0  0  0  0
   15.2409    7.7753   13.5955 C   0  0  0  0  0  0  0  0  0  0  0  0
   14.9836    7.0705   12.4208 C   0  0  0  0  0  0  0  0  0  0  0  0
   14.7680    7.7428   11.2358 C   0  0  0  0  0  0  0  0  0  0  0  0
   14.8029    9.1365   11.3002 C   0  0  0  0  0  0  0  0  0  0  0  0
  1  2  1  0
  2  3  1  0
  3  4  1  0
  3  5  2  0
  5  6  1  0
  6  7  2  0
  7  8  1  0
  8  9  1  6
  8 10  1  0
 10 11  1  0
 11 12  1  0
 12 13  1  0
  7 14  1  0
 14 15  2  0
 15 16  1  0
 16 17  2  0
 17  2  1  0
 17  6  1  0
 13  8  1  0
M  END
>  <HIPPO ID>  (326) 
103229

>  <ref_url>  (326) 
None

>  <ref_pdb>  (326) 
c0300a

>  <inchikey>  (326) 
ZDDJHSUSVFXCKN-ZDUSSCGKSA-N

>  <original SMILES>  (326) 
Cn1c(O)nc2c([C@@]3(C)CCOC3)cccc21

>  <generation_date>  (326) 
None

>  <tags>  (326) 
[]

>  <ref_mols>  (326) 
c0894a,c1134a

>  <alias>  (326) 
None

>  <original ID>  (326) 
ZDDJHSUSVFXCKN-ZDUSSCGKSA-N

>  <exports>  (326) 
['/opt/xchem-fragalysis-2/maxwin/CHIKV_HIPPO/hippo_prod/CHIKV_prod11c_recipes/Recipe_1GJWBFH_poses.sdf', '/opt/xchem-fragalysis-2/maxwin/CHIKV_HIPPO/hippo_prod/CHIKV_prod11c_recipes/Recipe_1GJXK8G_poses.sdf', '/opt/xchem-fragalysis-2/maxwin/CHIKV_HIPPO/hippo_prod/CHIKV_prod11c_recipes/Recipe_1GJXW46_poses.sdf']

>  <method>  (326) 
None

>  <submitter_email>  (326) 
None

>  <submitter_name>  (326) 
None

$$$$
JHSGYCSLMCXIBE-UHFFFAOYSA-N
     RDKit          3D

 17 19  0  0  0  0  0  0  0  0999 V2000
   14.5229    9.6898    8.9710 C   0  0  0  0  0  0  0  0  0  0  0  0
   14.7129   10.1156   10.3268 N   0  0  0  0  0  0  0  0  0  0  0  0
   14.6223   11.3748   10.8349 C   0  0  0  0  0  0  0  0  0  0  0  0
   14.2705   12.4247   10.1343 O   0  0  0  0  0  0  0  0  0  0  0  0
   14.8434   11.4182   12.1183 N   0  0  0  0  0  0  0  0  0  0  0  0
   14.8991   10.0898   12.5127 C   0  0  0  0  0  0  0  0  0  0  0  0
   15.0211    9.5074   13.8021 C   0  0  0  0  0  0  0  0  0  0  0  0
   15.2330   10.3763   15.0694 C   0  0  0  0  0  0  0  0  0  0  0  0
   15.1036   11.8948   14.8853 C   0  0  0  0  0  0  0  0  0  0  0  0
   15.1737   12.8111   16.1044 C   0  0  0  0  0  0  0  0  0  0  0  0
   13.8886   13.0420   16.6665 O   0  0  0  0  0  0  0  0  0  0  0  0
   16.3449    9.8724   15.9897 C   0  0  0  0  0  0  0  0  0  0  0  0
   14.9175    9.7788   16.4355 C   0  0  0  0  0  0  0  0  0  0  0  0
   14.9937    8.0845   13.8263 C   0  0  0  0  0  0  0  0  0  0  0  0
   14.8651    7.2882   12.6861 C   0  0  0  0  0  0  0  0  0  0  0  0
   14.7665    7.8629   11.4321 C   0  0  0  0  0  0  0  0  0  0  0  0
   14.8007    9.2586   11.3883 C   0  0  0  0  0  0  0  0  0  0  0  0
  1  2  1  0
  2  3  1  0
  3  4  1  0
  3  5  2  0
  5  6  1  0
  6  7  2  0
  7  8  1  0
  8  9  1  0
  9 10  1  0
 10 11  1  0
  8 12  1  0
 12 13  1  0
  7 14  1  0
 14 15  2  0
 15 16  1  0
 16 17  2  0
 17  2  1  0
 17  6  1  0
 13  8  1  0
M  END
>  <HIPPO ID>  (327) 
103230

>  <ref_url>  (327) 
None

>  <ref_pdb>  (327) 
c0300a

>  <inchikey>  (327) 
JHSGYCSLMCXIBE-UHFFFAOYSA-N

>  <original SMILES>  (327) 
Cn1c(O)nc2c(C3(CCO)CC3)cccc21

>  <generation_date>  (327) 
None

>  <tags>  (327) 
[]

>  <ref_mols>  (327) 
c0894a,c1134a

>  <alias>  (327) 
None

>  <original ID>  (327) 
JHSGYCSLMCXIBE-UHFFFAOYSA-N

>  <exports>  (327) 
['/opt/xchem-fragalysis-2/maxwin/CHIKV_HIPPO/hippo_prod/CHIKV_prod11b_recipes/Recipe_1GFD8FK_poses.sdf', '/opt/xchem-fragalysis-2/maxwin/CHIKV_HIPPO/hippo_prod/CHIKV_prod11c_recipes/Recipe_1GJWBFH_poses.sdf', '/opt/xchem-fragalysis-2/maxwin/CHIKV_HIPPO/hippo_prod/CHIKV_prod11c_recipes/Recipe_1GJXK8G_poses.sdf', '/opt/xchem-fragalysis-2/maxwin/CHIKV_HIPPO/hippo_prod/CHIKV_prod11c_recipes/Recipe_1GJXW46_poses.sdf']

>  <method>  (327) 
None

>  <submitter_email>  (327) 
None

>  <submitter_name>  (327) 
None

$$$$
JXRCCCJCUJURBQ-UHFFFAOYSA-N
     RDKit          3D

 16 17  0  0  0  0  0  0  0  0999 V2000
   15.8571   10.8075   13.4262 C   0  0  0  0  0  0  0  0  0  0  0  0
   15.6572    9.8467   12.2935 C   0  0  0  0  0  0  0  0  0  0  0  0
   14.9492    8.6565   12.5395 C   0  0  0  0  0  0  0  0  0  0  0  0
   14.5724    7.8137   11.4959 C   0  0  0  0  0  0  0  0  0  0  0  0
   14.8933    8.1550   10.1941 C   0  0  0  0  0  0  0  0  0  0  0  0
   15.6655    9.2848    9.9519 C   0  0  0  0  0  0  0  0  0  0  0  0
   15.9555    9.5167    8.6430 O   0  0  0  0  0  0  0  0  0  0  0  0
   16.0790   10.1442   10.9862 C   0  0  0  0  0  0  0  0  0  0  0  0
   16.7840   11.3403   10.6723 N   0  0  0  0  0  0  0  0  0  0  0  0
   18.0970   11.6969   11.0792 C   0  0  0  0  0  0  0  0  0  0  0  0
   19.1989   11.0509   10.5177 C   0  0  0  0  0  0  0  0  0  0  0  0
   20.5050   11.4291   10.8253 C   0  0  0  0  0  0  0  0  0  0  0  0
   20.7143   12.4684   11.7131 C   0  0  0  0  0  0  0  0  0  0  0  0
   22.0012   12.7449   12.0545 O   0  0  0  0  0  0  0  0  0  0  0  0
   19.6374   13.1708   12.2497 C   0  0  0  0  0  0  0  0  0  0  0  0
   18.3264   12.7852   11.9278 C   0  0  0  0  0  0  0  0  0  0  0  0
  1  2  1  0
  2  3  2  0
  3  4  1  0
  4  5  2  0
  5  6  1  0
  6  7  1  0
  6  8  2  0
  8  9  1  0
  9 10  1  0
 10 11  2  0
 11 12  1  0
 12 13  2  0
 13 14  1  0
 13 15  1  0
 15 16  2  0
  8  2  1  0
 16 10  1  0
M  END
>  <HIPPO ID>  (328) 
104911

>  <ref_url>  (328) 
None

>  <ref_pdb>  (328) 
c0270a

>  <inchikey>  (328) 
JXRCCCJCUJURBQ-UHFFFAOYSA-N

>  <original SMILES>  (328) 
Cc1cccc(O)c1Nc1ccc(O)cc1

>  <generation_date>  (328) 
None

>  <tags>  (328) 
[]

>  <ref_mols>  (328) 
c0692a,c1116a

>  <alias>  (328) 
None

>  <original ID>  (328) 
JXRCCCJCUJURBQ-UHFFFAOYSA-N

>  <exports>  (328) 
['/opt/xchem-fragalysis-2/maxwin/CHIKV_HIPPO/hippo_prod/CHIKV_prod11_recipes/Recipe_1G8PPKY_poses.sdf', '/opt/xchem-fragalysis-2/maxwin/CHIKV_HIPPO/web/web_resources/pose_sdfs/modal_c3625_poses.sdf', '/opt/xchem-fragalysis-2/maxwin/CHIKV_HIPPO/hippo_prod/CHIKV_prod11_recipes/Recipe_1GERJCJ_poses.sdf', '/opt/xchem-fragalysis-2/maxwin/CHIKV_HIPPO/hippo_prod/CHIKV_prod11b_recipes/Recipe_1GFD8FK_poses.sdf', '/opt/xchem-fragalysis-2/maxwin/CHIKV_HIPPO/hippo_prod/CHIKV_prod11c_recipes/Recipe_1GJWBFH_poses.sdf', '/opt/xchem-fragalysis-2/maxwin/CHIKV_HIPPO/hippo_prod/CHIKV_prod11c_recipes/Recipe_1GJXK8G_poses.sdf', '/opt/xchem-fragalysis-2/maxwin/CHIKV_HIPPO/hippo_prod/CHIKV_prod11c_recipes/Recipe_1GJXW46_poses.sdf']

>  <method>  (328) 
None

>  <submitter_email>  (328) 
None

>  <submitter_name>  (328) 
None

$$$$
NSKAXFKIEYACNT-UHFFFAOYSA-N
     RDKit          3D

 17 18  0  0  0  0  0  0  0  0999 V2000
   15.8907   10.6345   13.5418 C   0  0  0  0  0  0  0  0  0  0  0  0
   15.7034    9.7572   12.3415 C   0  0  0  0  0  0  0  0  0  0  0  0
   14.9778    8.5616   12.5098 C   0  0  0  0  0  0  0  0  0  0  0  0
   14.5819    7.7955   11.4173 C   0  0  0  0  0  0  0  0  0  0  0  0
   14.8888    8.2277   10.1405 C   0  0  0  0  0  0  0  0  0  0  0  0
   15.6594    9.3728    9.9673 C   0  0  0  0  0  0  0  0  0  0  0  0
   15.8880    9.7087    8.6688 O   0  0  0  0  0  0  0  0  0  0  0  0
   16.1039   10.1541   11.0535 C   0  0  0  0  0  0  0  0  0  0  0  0
   16.7931   11.3829   10.8145 N   0  0  0  0  0  0  0  0  0  0  0  0
   18.1348   11.7334   11.1716 C   0  0  0  0  0  0  0  0  0  0  0  0
   19.1903   11.0559   10.5467 C   0  0  0  0  0  0  0  0  0  0  0  0
   20.5292   11.4104   10.7480 C   0  0  0  0  0  0  0  0  0  0  0  0
   20.8407   12.4721   11.5836 C   0  0  0  0  0  0  0  0  0  0  0  0
   19.8122   13.1735   12.2022 C   0  0  0  0  0  0  0  0  0  0  0  0
   20.1467   14.1849   13.0177 F   0  0  0  0  0  0  0  0  0  0  0  0
   18.4654   12.8281   11.9975 C   0  0  0  0  0  0  0  0  0  0  0  0
   17.2558   13.7737   12.7910 Cl  0  0  0  0  0  0  0  0  0  0  0  0
  1  2  1  0
  2  3  2  0
  3  4  1  0
  4  5  2  0
  5  6  1  0
  6  7  1  0
  6  8  2  0
  8  9  1  0
  9 10  1  0
 10 11  2  0
 11 12  1  0
 12 13  2  0
 13 14  1  0
 14 15  1  0
 14 16  2  0
 16 17  1  0
  8  2  1  0
 16 10  1  0
M  END
>  <HIPPO ID>  (329) 
105087

>  <ref_url>  (329) 
None

>  <ref_pdb>  (329) 
c0270a

>  <inchikey>  (329) 
NSKAXFKIEYACNT-UHFFFAOYSA-N

>  <original SMILES>  (329) 
Cc1cccc(O)c1Nc1cccc(F)c1Cl

>  <generation_date>  (329) 
None

>  <tags>  (329) 
[]

>  <ref_mols>  (329) 
c0692a,c1116a

>  <alias>  (329) 
None

>  <original ID>  (329) 
NSKAXFKIEYACNT-UHFFFAOYSA-N

>  <exports>  (329) 
['/opt/xchem-fragalysis-2/maxwin/CHIKV_HIPPO/hippo_prod/CHIKV_prod11c_recipes/Recipe_1GJWBFH_poses.sdf', '/opt/xchem-fragalysis-2/maxwin/CHIKV_HIPPO/hippo_prod/CHIKV_prod11c_recipes/Recipe_1GJXK8G_poses.sdf', '/opt/xchem-fragalysis-2/maxwin/CHIKV_HIPPO/hippo_prod/CHIKV_prod11c_recipes/Recipe_1GJXW46_poses.sdf']

>  <method>  (329) 
None

>  <submitter_email>  (329) 
None

>  <submitter_name>  (329) 
None

$$$$
BEJJFSGRWJSFBR-UHFFFAOYSA-N
     RDKit          3D

 18 19  0  0  0  0  0  0  0  0999 V2000
   22.3713   11.6244   10.0996 C   0  0  0  0  0  0  0  0  0  0  0  0
   21.3364   11.0055   10.8562 O   0  0  0  0  0  0  0  0  0  0  0  0
   20.3612   11.8601   11.2787 C   0  0  0  0  0  0  0  0  0  0  0  0
   19.0432   11.4655   10.9549 C   0  0  0  0  0  0  0  0  0  0  0  0
   17.9440   12.1434   11.4779 C   0  0  0  0  0  0  0  0  0  0  0  0
   16.6022   11.7641   11.2357 N   0  0  0  0  0  0  0  0  0  0  0  0
   16.0386   10.4714   11.1196 C   0  0  0  0  0  0  0  0  0  0  0  0
   15.6869    9.9837    9.8570 C   0  0  0  0  0  0  0  0  0  0  0  0
   14.9922    8.7847    9.7074 C   0  0  0  0  0  0  0  0  0  0  0  0
   14.6566    8.0347   10.8234 C   0  0  0  0  0  0  0  0  0  0  0  0
   14.9719    8.5155   12.0920 C   0  0  0  0  0  0  0  0  0  0  0  0
   15.6371    9.7438   12.2543 C   0  0  0  0  0  0  0  0  0  0  0  0
   15.7923   10.2964   13.6408 C   0  0  0  0  0  0  0  0  0  0  0  0
   18.1983   13.2939   12.2430 C   0  0  0  0  0  0  0  0  0  0  0  0
   19.5054   13.7063   12.5825 C   0  0  0  0  0  0  0  0  0  0  0  0
   19.6762   14.9142   13.4580 C   0  0  0  0  0  0  0  0  0  0  0  0
   20.5968   12.9528   12.1297 C   0  0  0  0  0  0  0  0  0  0  0  0
   22.5467   13.3893   12.9072 I   0  0  0  0  0  0  0  0  0  0  0  0
  1  2  1  0
  2  3  1  0
  3  4  2  0
  4  5  1  0
  5  6  1  0
  6  7  1  0
  7  8  2  0
  8  9  1  0
  9 10  2  0
 10 11  1  0
 11 12  2  0
 12 13  1  0
  5 14  2  0
 14 15  1  0
 15 16  1  0
 15 17  2  0
 17 18  1  0
 17  3  1  0
 12  7  1  0
M  END
>  <HIPPO ID>  (330) 
105678

>  <ref_url>  (330) 
None

>  <ref_pdb>  (330) 
c0270a

>  <inchikey>  (330) 
BEJJFSGRWJSFBR-UHFFFAOYSA-N

>  <original SMILES>  (330) 
COc1cc(Nc2ccccc2C)cc(C)c1I

>  <generation_date>  (330) 
None

>  <tags>  (330) 
[]

>  <ref_mols>  (330) 
c0692a,c1116a

>  <alias>  (330) 
None

>  <original ID>  (330) 
BEJJFSGRWJSFBR-UHFFFAOYSA-N

>  <exports>  (330) 
['/opt/xchem-fragalysis-2/maxwin/CHIKV_HIPPO/hippo_prod/CHIKV_prod11c_recipes/Recipe_1GJWBFH_poses.sdf', '/opt/xchem-fragalysis-2/maxwin/CHIKV_HIPPO/hippo_prod/CHIKV_prod11c_recipes/Recipe_1GJXK8G_poses.sdf', '/opt/xchem-fragalysis-2/maxwin/CHIKV_HIPPO/hippo_prod/CHIKV_prod11c_recipes/Recipe_1GJXW46_poses.sdf']

>  <method>  (330) 
None

>  <submitter_email>  (330) 
None

>  <submitter_name>  (330) 
None

$$$$
IGKIIUIHUOMEMT-UHFFFAOYSA-N
     RDKit          3D

 19 20  0  0  0  0  0  0  0  0999 V2000
   14.8351   10.8366   14.3878 C   0  0  0  0  0  0  0  0  0  0  0  0
   15.9567   10.2626   13.7194 O   0  0  0  0  0  0  0  0  0  0  0  0
   15.5538    9.5797   12.5995 C   0  0  0  0  0  0  0  0  0  0  0  0
   14.8846    8.3548   12.7195 C   0  0  0  0  0  0  0  0  0  0  0  0
   14.4509    7.6975   11.5727 C   0  0  0  0  0  0  0  0  0  0  0  0
   13.3383    6.1741   11.6619 Br  0  0  0  0  0  0  0  0  0  0  0  0
   14.7339    8.2208   10.3275 C   0  0  0  0  0  0  0  0  0  0  0  0
   15.4097    9.4439   10.2177 C   0  0  0  0  0  0  0  0  0  0  0  0
   15.5773    9.9562    8.8426 C   0  0  0  0  0  0  0  0  0  0  0  0
   15.8382   10.1480   11.3501 C   0  0  0  0  0  0  0  0  0  0  0  0
   16.4424   11.4389   11.2765 N   0  0  0  0  0  0  0  0  0  0  0  0
   17.8403   11.7393   11.3446 C   0  0  0  0  0  0  0  0  0  0  0  0
   18.7671   11.0148   10.5964 C   0  0  0  0  0  0  0  0  0  0  0  0
   20.1343   11.3278   10.6228 C   0  0  0  0  0  0  0  0  0  0  0  0
   20.6054   12.3784   11.4020 C   0  0  0  0  0  0  0  0  0  0  0  0
   19.6980   13.1304   12.1398 C   0  0  0  0  0  0  0  0  0  0  0  0
   20.1719   14.1251   12.9518 O   0  0  0  0  0  0  0  0  0  0  0  0
   18.3221   12.8440   12.0873 C   0  0  0  0  0  0  0  0  0  0  0  0
   17.2112   13.7953   13.0214 Cl  0  0  0  0  0  0  0  0  0  0  0  0
  1  2  1  0
  2  3  1  0
  3  4  2  0
  4  5  1  0
  5  6  1  0
  5  7  2  0
  7  8  1  0
  8  9  1  0
  8 10  2  0
 10 11  1  0
 11 12  1  0
 12 13  2  0
 13 14  1  0
 14 15  2  0
 15 16  1  0
 16 17  1  0
 16 18  2  0
 18 19  1  0
 10  3  1  0
 18 12  1  0
M  END
>  <HIPPO ID>  (331) 
106528

>  <ref_url>  (331) 
None

>  <ref_pdb>  (331) 
c0270a

>  <inchikey>  (331) 
IGKIIUIHUOMEMT-UHFFFAOYSA-N

>  <original SMILES>  (331) 
COc1cc(Br)cc(C)c1Nc1cccc(O)c1Cl

>  <generation_date>  (331) 
None

>  <tags>  (331) 
[]

>  <ref_mols>  (331) 
c0692a,c1116a

>  <alias>  (331) 
None

>  <original ID>  (331) 
IGKIIUIHUOMEMT-UHFFFAOYSA-N

>  <exports>  (331) 
['/opt/xchem-fragalysis-2/maxwin/CHIKV_HIPPO/hippo_prod/CHIKV_prod11c_recipes/Recipe_1GJXK8G_poses.sdf', '/opt/xchem-fragalysis-2/maxwin/CHIKV_HIPPO/hippo_prod/CHIKV_prod11c_recipes/Recipe_1GJXW46_poses.sdf']

>  <method>  (331) 
None

>  <submitter_email>  (331) 
None

>  <submitter_name>  (331) 
None

$$$$
TUYGGRBJJYISSC-UHFFFAOYSA-N
     RDKit          3D

 19 20  0  0  0  0  0  0  0  0999 V2000
   22.7148   11.7040   10.0649 C   0  0  0  0  0  0  0  0  0  0  0  0
   21.8027   10.9919   10.8965 O   0  0  0  0  0  0  0  0  0  0  0  0
   20.6806   11.7054   11.1779 C   0  0  0  0  0  0  0  0  0  0  0  0
   19.4852   11.1937   10.6607 C   0  0  0  0  0  0  0  0  0  0  0  0
   18.2494   11.7330   11.0040 C   0  0  0  0  0  0  0  0  0  0  0  0
   17.0685   11.2207   10.4172 N   0  0  0  0  0  0  0  0  0  0  0  0
   16.2164   10.1607   10.8197 C   0  0  0  0  0  0  0  0  0  0  0  0
   15.7116    9.3388    9.7851 C   0  0  0  0  0  0  0  0  0  0  0  0
   14.8580    8.2669   10.0382 C   0  0  0  0  0  0  0  0  0  0  0  0
   14.4885    7.9828   11.3395 C   0  0  0  0  0  0  0  0  0  0  0  0
   14.8956    8.8351   12.3590 C   0  0  0  0  0  0  0  0  0  0  0  0
   14.3737    8.5932   13.6055 O   0  0  0  0  0  0  0  0  0  0  0  0
   15.7423    9.9275   12.1152 C   0  0  0  0  0  0  0  0  0  0  0  0
   16.0874   10.9659   13.4524 Cl  0  0  0  0  0  0  0  0  0  0  0  0
   18.2446   12.8739   11.8014 C   0  0  0  0  0  0  0  0  0  0  0  0
   19.4481   13.4466   12.2715 C   0  0  0  0  0  0  0  0  0  0  0  0
   19.3850   14.7423   12.9989 C   0  0  0  0  0  0  0  0  0  0  0  0
   20.6729   12.8185   12.0144 C   0  0  0  0  0  0  0  0  0  0  0  0
   22.4616   13.5024   12.9452 I   0  0  0  0  0  0  0  0  0  0  0  0
  1  2  1  0
  2  3  1  0
  3  4  2  0
  4  5  1  0
  5  6  1  0
  6  7  1  0
  7  8  2  0
  8  9  1  0
  9 10  2  0
 10 11  1  0
 11 12  1  0
 11 13  2  0
 13 14  1  0
  5 15  2  0
 15 16  1  0
 16 17  1  0
 16 18  2  0
 18 19  1  0
 18  3  1  0
 13  7  1  0
M  END
>  <HIPPO ID>  (332) 
106529

>  <ref_url>  (332) 
None

>  <ref_pdb>  (332) 
c0270a

>  <inchikey>  (332) 
TUYGGRBJJYISSC-UHFFFAOYSA-N

>  <original SMILES>  (332) 
COc1cc(Nc2cccc(O)c2Cl)cc(C)c1I

>  <generation_date>  (332) 
None

>  <tags>  (332) 
[]

>  <ref_mols>  (332) 
c0692a,c1116a

>  <alias>  (332) 
None

>  <original ID>  (332) 
TUYGGRBJJYISSC-UHFFFAOYSA-N

>  <exports>  (332) 
['/opt/xchem-fragalysis-2/maxwin/CHIKV_HIPPO/hippo_prod/CHIKV_prod11c_recipes/Recipe_1GJXK8G_poses.sdf', '/opt/xchem-fragalysis-2/maxwin/CHIKV_HIPPO/hippo_prod/CHIKV_prod11c_recipes/Recipe_1GJXW46_poses.sdf']

>  <method>  (332) 
None

>  <submitter_email>  (332) 
None

>  <submitter_name>  (332) 
None

$$$$
WBTNDPCBISTBDL-UHFFFAOYSA-N
     RDKit          3D

 19 20  0  0  0  0  0  0  0  0999 V2000
   14.8369   10.8175   14.4097 C   0  0  0  0  0  0  0  0  0  0  0  0
   15.9608   10.2695   13.7239 O   0  0  0  0  0  0  0  0  0  0  0  0
   15.5590    9.5829   12.6056 C   0  0  0  0  0  0  0  0  0  0  0  0
   14.8879    8.3590   12.7236 C   0  0  0  0  0  0  0  0  0  0  0  0
   14.4560    7.7026   11.5755 C   0  0  0  0  0  0  0  0  0  0  0  0
   13.3429    6.1793   11.6616 Br  0  0  0  0  0  0  0  0  0  0  0  0
   14.7416    8.2268   10.3313 C   0  0  0  0  0  0  0  0  0  0  0  0
   15.4190    9.4493   10.2232 C   0  0  0  0  0  0  0  0  0  0  0  0
   15.5848    9.9627    8.8483 C   0  0  0  0  0  0  0  0  0  0  0  0
   15.8477   10.1512   11.3569 C   0  0  0  0  0  0  0  0  0  0  0  0
   16.4546   11.4421   11.2898 N   0  0  0  0  0  0  0  0  0  0  0  0
   17.8524   11.7418   11.3517 C   0  0  0  0  0  0  0  0  0  0  0  0
   18.7782   11.0170   10.6008 C   0  0  0  0  0  0  0  0  0  0  0  0
   20.1457   11.3349   10.6158 C   0  0  0  0  0  0  0  0  0  0  0  0
   20.6127   12.4005   11.3755 C   0  0  0  0  0  0  0  0  0  0  0  0
   19.7060   13.1544   12.1067 C   0  0  0  0  0  0  0  0  0  0  0  0
   20.1758   14.1585   12.8624 F   0  0  0  0  0  0  0  0  0  0  0  0
   18.3371   12.8514   12.0828 C   0  0  0  0  0  0  0  0  0  0  0  0
   17.2494   13.8176   13.0212 Cl  0  0  0  0  0  0  0  0  0  0  0  0
  1  2  1  0
  2  3  1  0
  3  4  2  0
  4  5  1  0
  5  6  1  0
  5  7  2  0
  7  8  1  0
  8  9  1  0
  8 10  2  0
 10 11  1  0
 11 12  1  0
 12 13  2  0
 13 14  1  0
 14 15  2  0
 15 16  1  0
 16 17  1  0
 16 18  2  0
 18 19  1  0
 10  3  1  0
 18 12  1  0
M  END
>  <HIPPO ID>  (333) 
106770

>  <ref_url>  (333) 
None

>  <ref_pdb>  (333) 
c0270a

>  <inchikey>  (333) 
WBTNDPCBISTBDL-UHFFFAOYSA-N

>  <original SMILES>  (333) 
COc1cc(Br)cc(C)c1Nc1cccc(F)c1Cl

>  <generation_date>  (333) 
None

>  <tags>  (333) 
[]

>  <ref_mols>  (333) 
c0692a,c1116a

>  <alias>  (333) 
None

>  <original ID>  (333) 
WBTNDPCBISTBDL-UHFFFAOYSA-N

>  <exports>  (333) 
['/opt/xchem-fragalysis-2/maxwin/CHIKV_HIPPO/hippo_prod/CHIKV_prod11_recipes/Recipe_1G8PPKY_poses.sdf', '/opt/xchem-fragalysis-2/maxwin/CHIKV_HIPPO/hippo_prod/CHIKV_prod11c_recipes/Recipe_1GJWBFH_poses.sdf', '/opt/xchem-fragalysis-2/maxwin/CHIKV_HIPPO/hippo_prod/CHIKV_prod11c_recipes/Recipe_1GJXK8G_poses.sdf', '/opt/xchem-fragalysis-2/maxwin/CHIKV_HIPPO/hippo_prod/CHIKV_prod11c_recipes/Recipe_1GJXW46_poses.sdf']

>  <method>  (333) 
None

>  <submitter_email>  (333) 
None

>  <submitter_name>  (333) 
None

$$$$
QLNQPKZCPUHQMS-UHFFFAOYSA-N
     RDKit          3D

 20 22  0  0  0  0  0  0  0  0999 V2000
   15.3632   11.3501   14.3709 C   0  0  0  0  0  0  0  0  0  0  0  0
   16.4387   10.8029   13.6020 O   0  0  0  0  0  0  0  0  0  0  0  0
   15.9513    9.9487   12.6489 C   0  0  0  0  0  0  0  0  0  0  0  0
   15.2870    8.7804   13.0867 C   0  0  0  0  0  0  0  0  0  0  0  0
   14.6774    7.9219   12.1877 C   0  0  0  0  0  0  0  0  0  0  0  0
   14.6971    8.2910   10.8670 C   0  0  0  0  0  0  0  0  0  0  0  0
   15.4075    9.4211   10.4233 C   0  0  0  0  0  0  0  0  0  0  0  0
   16.1357   10.2345   11.2895 C   0  0  0  0  0  0  0  0  0  0  0  0
   16.8639   11.3432   10.7744 N   0  0  0  0  0  0  0  0  0  0  0  0
   18.1750   11.7744   11.1605 C   0  0  0  0  0  0  0  0  0  0  0  0
   19.2666   11.1194   10.5617 C   0  0  0  0  0  0  0  0  0  0  0  0
   20.5914   11.4896   10.8083 C   0  0  0  0  0  0  0  0  0  0  0  0
   20.8538   12.5422   11.6700 C   0  0  0  0  0  0  0  0  0  0  0  0
   19.7920   13.2136   12.2686 C   0  0  0  0  0  0  0  0  0  0  0  0
   20.0864   14.2254   13.0993 F   0  0  0  0  0  0  0  0  0  0  0  0
   18.4558   12.8485   12.0239 C   0  0  0  0  0  0  0  0  0  0  0  0
   17.2118   13.7908   12.7620 Cl  0  0  0  0  0  0  0  0  0  0  0  0
   15.2306    9.5468    8.9449 C   0  0  0  0  0  0  0  0  0  0  0  0
   13.9258    8.7669    8.7566 C   0  0  0  0  0  0  0  0  0  0  0  0
   13.9808    7.6149    9.7501 C   0  0  0  0  0  0  0  0  0  0  0  0
  1  2  1  0
  2  3  1  0
  3  4  2  0
  4  5  1  0
  5  6  2  0
  6  7  1  0
  7  8  2  0
  8  9  1  0
  9 10  1  0
 10 11  2  0
 11 12  1  0
 12 13  2  0
 13 14  1  0
 14 15  1  0
 14 16  2  0
 16 17  1  0
  7 18  1  0
 18 19  1  0
 19 20  1  0
  8  3  1  0
 16 10  1  0
 20  6  1  0
M  END
>  <HIPPO ID>  (334) 
106883

>  <ref_url>  (334) 
None

>  <ref_pdb>  (334) 
c0270a

>  <inchikey>  (334) 
QLNQPKZCPUHQMS-UHFFFAOYSA-N

>  <original SMILES>  (334) 
COc1ccc2c(c1Nc1cccc(F)c1Cl)CCC2

>  <generation_date>  (334) 
None

>  <tags>  (334) 
[]

>  <ref_mols>  (334) 
c0692a,c1116a

>  <alias>  (334) 
None

>  <original ID>  (334) 
QLNQPKZCPUHQMS-UHFFFAOYSA-N

>  <exports>  (334) 
['/opt/xchem-fragalysis-2/maxwin/CHIKV_HIPPO/hippo_prod/CHIKV_prod11_recipes/Recipe_1G8PPKY_poses.sdf', '/opt/xchem-fragalysis-2/maxwin/CHIKV_HIPPO/hippo_prod/CHIKV_prod11c_recipes/Recipe_1GJWBFH_poses.sdf', '/opt/xchem-fragalysis-2/maxwin/CHIKV_HIPPO/hippo_prod/CHIKV_prod11c_recipes/Recipe_1GJXK8G_poses.sdf', '/opt/xchem-fragalysis-2/maxwin/CHIKV_HIPPO/hippo_prod/CHIKV_prod11c_recipes/Recipe_1GJXW46_poses.sdf']

>  <method>  (334) 
None

>  <submitter_email>  (334) 
None

>  <submitter_name>  (334) 
None

$$$$
MEGCTDBRIZDQNV-UHFFFAOYSA-N
     RDKit          3D

 20 21  0  0  0  0  0  0  0  0999 V2000
   14.9069   10.7042   14.4900 C   0  0  0  0  0  0  0  0  0  0  0  0
   15.9741   10.0202   13.8387 O   0  0  0  0  0  0  0  0  0  0  0  0
   15.5237    9.4419   12.6792 C   0  0  0  0  0  0  0  0  0  0  0  0
   14.8703    8.2039   12.7419 C   0  0  0  0  0  0  0  0  0  0  0  0
   14.3768    7.6316   11.5759 C   0  0  0  0  0  0  0  0  0  0  0  0
   13.2796    6.0975   11.6042 Br  0  0  0  0  0  0  0  0  0  0  0  0
   14.5943    8.2498   10.3630 C   0  0  0  0  0  0  0  0  0  0  0  0
   15.2549    9.4891   10.3078 C   0  0  0  0  0  0  0  0  0  0  0  0
   15.4702   10.0274    8.9505 C   0  0  0  0  0  0  0  0  0  0  0  0
   16.4541    9.1978    8.4057 O   0  0  0  0  0  0  0  0  0  0  0  0
   15.7192   10.1200   11.4691 C   0  0  0  0  0  0  0  0  0  0  0  0
   16.2811   11.4219   11.4845 N   0  0  0  0  0  0  0  0  0  0  0  0
   17.6439   11.8098   11.5384 C   0  0  0  0  0  0  0  0  0  0  0  0
   18.6608   11.1772   10.8336 C   0  0  0  0  0  0  0  0  0  0  0  0
   19.9686   11.6740   10.9146 C   0  0  0  0  0  0  0  0  0  0  0  0
   20.9658   11.0173   10.3220 F   0  0  0  0  0  0  0  0  0  0  0  0
   20.2837   12.8249   11.6277 C   0  0  0  0  0  0  0  0  0  0  0  0
   19.2731   13.4981   12.2925 C   0  0  0  0  0  0  0  0  0  0  0  0
   17.9789   12.9855   12.2430 C   0  0  0  0  0  0  0  0  0  0  0  0
   17.0179   13.6448   12.9595 O   0  0  0  0  0  0  0  0  0  0  0  0
  1  2  1  0
  2  3  1  0
  3  4  2  0
  4  5  1  0
  5  6  1  0
  5  7  2  0
  7  8  1  0
  8  9  1  0
  9 10  1  0
  8 11  2  0
 11 12  1  0
 12 13  1  0
 13 14  2  0
 14 15  1  0
 15 16  1  0
 15 17  2  0
 17 18  1  0
 18 19  2  0
 19 20  1  0
 11  3  1  0
 19 13  1  0
M  END
>  <HIPPO ID>  (335) 
106943

>  <ref_url>  (335) 
None

>  <ref_pdb>  (335) 
c0270a

>  <inchikey>  (335) 
MEGCTDBRIZDQNV-UHFFFAOYSA-N

>  <original SMILES>  (335) 
COc1cc(Br)cc(CO)c1Nc1cc(F)ccc1O

>  <generation_date>  (335) 
None

>  <tags>  (335) 
[]

>  <ref_mols>  (335) 
c0692a,c1116a

>  <alias>  (335) 
None

>  <original ID>  (335) 
MEGCTDBRIZDQNV-UHFFFAOYSA-N

>  <exports>  (335) 
['/opt/xchem-fragalysis-2/maxwin/CHIKV_HIPPO/hippo_prod/CHIKV_prod11c_recipes/Recipe_1GJWBFH_poses.sdf', '/opt/xchem-fragalysis-2/maxwin/CHIKV_HIPPO/hippo_prod/CHIKV_prod11c_recipes/Recipe_1GJXK8G_poses.sdf', '/opt/xchem-fragalysis-2/maxwin/CHIKV_HIPPO/hippo_prod/CHIKV_prod11c_recipes/Recipe_1GJXW46_poses.sdf']

>  <method>  (335) 
None

>  <submitter_email>  (335) 
None

>  <submitter_name>  (335) 
None

$$$$
ZPNVWTHMWLOMFF-UHFFFAOYSA-N
     RDKit          3D

 20 21  0  0  0  0  0  0  0  0999 V2000
   14.8760   10.7586   14.5606 C   0  0  0  0  0  0  0  0  0  0  0  0
   15.9768   10.2684   13.8001 O   0  0  0  0  0  0  0  0  0  0  0  0
   15.5379    9.6007   12.6851 C   0  0  0  0  0  0  0  0  0  0  0  0
   14.8853    8.3649   12.7967 C   0  0  0  0  0  0  0  0  0  0  0  0
   14.4281    7.7251   11.6488 C   0  0  0  0  0  0  0  0  0  0  0  0
   13.3473    6.1796   11.7290 Br  0  0  0  0  0  0  0  0  0  0  0  0
   14.6618    8.2852   10.4115 C   0  0  0  0  0  0  0  0  0  0  0  0
   15.3197    9.5219   10.3111 C   0  0  0  0  0  0  0  0  0  0  0  0
   15.4824   10.0506    8.9462 C   0  0  0  0  0  0  0  0  0  0  0  0
   16.4287    9.2068    8.3566 O   0  0  0  0  0  0  0  0  0  0  0  0
   15.7790   10.2015   11.4432 C   0  0  0  0  0  0  0  0  0  0  0  0
   16.3980   11.4880   11.3818 N   0  0  0  0  0  0  0  0  0  0  0  0
   17.8036   11.7674   11.4063 C   0  0  0  0  0  0  0  0  0  0  0  0
   18.7057   11.0246   10.6433 C   0  0  0  0  0  0  0  0  0  0  0  0
   20.0755   11.3338   10.6219 C   0  0  0  0  0  0  0  0  0  0  0  0
   20.5695   12.4034   11.3593 C   0  0  0  0  0  0  0  0  0  0  0  0
   19.6869   13.1711   12.1052 C   0  0  0  0  0  0  0  0  0  0  0  0
   20.1819   14.1766   12.8423 F   0  0  0  0  0  0  0  0  0  0  0  0
   18.3154   12.8808   12.1135 C   0  0  0  0  0  0  0  0  0  0  0  0
   17.2554   13.8662   13.0634 Cl  0  0  0  0  0  0  0  0  0  0  0  0
  1  2  1  0
  2  3  1  0
  3  4  2  0
  4  5  1  0
  5  6  1  0
  5  7  2  0
  7  8  1  0
  8  9  1  0
  9 10  1  0
  8 11  2  0
 11 12  1  0
 12 13  1  0
 13 14  2  0
 14 15  1  0
 15 16  2  0
 16 17  1  0
 17 18  1  0
 17 19  2  0
 19 20  1  0
 11  3  1  0
 19 13  1  0
M  END
>  <HIPPO ID>  (336) 
106971

>  <ref_url>  (336) 
None

>  <ref_pdb>  (336) 
c0270a

>  <inchikey>  (336) 
ZPNVWTHMWLOMFF-UHFFFAOYSA-N

>  <original SMILES>  (336) 
COc1cc(Br)cc(CO)c1Nc1cccc(F)c1Cl

>  <generation_date>  (336) 
None

>  <tags>  (336) 
[]

>  <ref_mols>  (336) 
c0692a,c1116a

>  <alias>  (336) 
None

>  <original ID>  (336) 
ZPNVWTHMWLOMFF-UHFFFAOYSA-N

>  <exports>  (336) 
['/opt/xchem-fragalysis-2/maxwin/CHIKV_HIPPO/hippo_prod/CHIKV_prod11_recipes/Recipe_1G8PPKY_poses.sdf', '/opt/xchem-fragalysis-2/maxwin/CHIKV_HIPPO/hippo_prod/CHIKV_prod11c_recipes/Recipe_1GJWBFH_poses.sdf', '/opt/xchem-fragalysis-2/maxwin/CHIKV_HIPPO/hippo_prod/CHIKV_prod11c_recipes/Recipe_1GJXK8G_poses.sdf', '/opt/xchem-fragalysis-2/maxwin/CHIKV_HIPPO/hippo_prod/CHIKV_prod11c_recipes/Recipe_1GJXW46_poses.sdf']

>  <method>  (336) 
None

>  <submitter_email>  (336) 
None

>  <submitter_name>  (336) 
None

$$$$
DWBJVFHAFXRLAF-UHFFFAOYSA-N
     RDKit          3D

 21 22  0  0  0  0  0  0  0  0999 V2000
   22.3435   11.9680   12.3343 C   0  0  0  0  0  0  0  0  0  0  0  0
   21.6543   12.3845   11.1516 O   0  0  0  0  0  0  0  0  0  0  0  0
   20.2979   12.2697   11.2762 C   0  0  0  0  0  0  0  0  0  0  0  0
   19.6460   11.2763   10.5572 C   0  0  0  0  0  0  0  0  0  0  0  0
   18.2575   11.1204   10.6868 C   0  0  0  0  0  0  0  0  0  0  0  0
   17.6320    9.9172   10.1274 C   0  0  0  0  0  0  0  0  0  0  0  0
   16.9670    9.7628    9.1226 O   0  0  0  0  0  0  0  0  0  0  0  0
   17.4961   11.9360   11.5350 C   0  0  0  0  0  0  0  0  0  0  0  0
   16.0644   11.8106   11.6785 N   0  0  0  0  0  0  0  0  0  0  0  0
   15.3303   10.5954   11.5129 C   0  0  0  0  0  0  0  0  0  0  0  0
   14.7469   10.2652   10.2824 C   0  0  0  0  0  0  0  0  0  0  0  0
   14.3455    8.9559   10.0087 C   0  0  0  0  0  0  0  0  0  0  0  0
   13.8271    8.6524    8.8108 F   0  0  0  0  0  0  0  0  0  0  0  0
   14.4481    7.9707   10.9823 C   0  0  0  0  0  0  0  0  0  0  0  0
   14.9269    8.3062   12.2525 C   0  0  0  0  0  0  0  0  0  0  0  0
   15.3628    9.6102   12.5067 C   0  0  0  0  0  0  0  0  0  0  0  0
   15.8992    9.9466   13.7191 O   0  0  0  0  0  0  0  0  0  0  0  0
   18.1736   12.9941   12.1957 C   0  0  0  0  0  0  0  0  0  0  0  0
   17.3952   13.7670   13.0258 O   0  0  0  0  0  0  0  0  0  0  0  0
   17.9589   14.9985   13.4674 C   0  0  0  0  0  0  0  0  0  0  0  0
   19.5653   13.1533   12.0650 C   0  0  0  0  0  0  0  0  0  0  0  0
  1  2  1  0
  2  3  1  0
  3  4  2  0
  4  5  1  0
  5  6  1  0
  6  7  2  0
  5  8  2  0
  8  9  1  0
  9 10  1  0
 10 11  2  0
 11 12  1  0
 12 13  1  0
 12 14  2  0
 14 15  1  0
 15 16  2  0
 16 17  1  0
  8 18  1  0
 18 19  1  0
 19 20  1  0
 18 21  2  0
 21  3  1  0
 16 10  1  0
M  END
>  <HIPPO ID>  (337) 
108523

>  <ref_url>  (337) 
None

>  <ref_pdb>  (337) 
c0270a

>  <inchikey>  (337) 
DWBJVFHAFXRLAF-UHFFFAOYSA-N

>  <original SMILES>  (337) 
COc1cc(C=O)c(Nc2cc(F)ccc2O)c(OC)c1

>  <generation_date>  (337) 
None

>  <tags>  (337) 
[]

>  <ref_mols>  (337) 
c0692a,c1116a

>  <alias>  (337) 
None

>  <original ID>  (337) 
DWBJVFHAFXRLAF-UHFFFAOYSA-N

>  <exports>  (337) 
['/opt/xchem-fragalysis-2/maxwin/CHIKV_HIPPO/hippo_prod/CHIKV_prod11c_recipes/Recipe_1GJWBFH_poses.sdf', '/opt/xchem-fragalysis-2/maxwin/CHIKV_HIPPO/hippo_prod/CHIKV_prod11c_recipes/Recipe_1GJXK8G_poses.sdf', '/opt/xchem-fragalysis-2/maxwin/CHIKV_HIPPO/hippo_prod/CHIKV_prod11c_recipes/Recipe_1GJXW46_poses.sdf']

>  <method>  (337) 
None

>  <submitter_email>  (337) 
None

>  <submitter_name>  (337) 
None

$$$$
UXGUTQNHSIUKHO-UHFFFAOYSA-N
     RDKit          3D

 17 17  0  0  0  0  0  0  0  0999 V2000
   22.2421   11.6629   11.8757 C   0  0  0  0  0  0  0  0  0  0  0  0
   21.4958   11.5044   10.5675 C   0  0  0  0  0  0  0  0  0  0  0  0
   20.0913   11.3092   10.8060 O   0  0  0  0  0  0  0  0  0  0  0  0
   19.3731   12.4447   10.9377 C   0  0  0  0  0  0  0  0  0  0  0  0
   19.7781   13.5887   10.8357 O   0  0  0  0  0  0  0  0  0  0  0  0
   17.8986   12.1245   11.2312 C   0  0  0  0  0  0  0  0  0  0  0  0
   17.2248   12.9658   11.8109 O   0  0  0  0  0  0  0  0  0  0  0  0
   17.4467   10.9310   10.7142 N   0  0  0  0  0  0  0  0  0  0  0  0
   16.2930   10.2073   11.0962 C   0  0  0  0  0  0  0  0  0  0  0  0
   15.7833    9.3212   10.1275 C   0  0  0  0  0  0  0  0  0  0  0  0
   16.2812    9.3030    8.8322 N   0  0  0  0  0  0  0  0  0  0  0  0
   14.9332    8.2803   10.4949 C   0  0  0  0  0  0  0  0  0  0  0  0
   14.4975    8.1779   11.7992 C   0  0  0  0  0  0  0  0  0  0  0  0
   14.8356    9.1704   12.7256 C   0  0  0  0  0  0  0  0  0  0  0  0
   14.2340    9.1451   14.0916 C   0  0  0  0  0  0  0  0  0  0  0  0
   15.7497   10.1789   12.3861 C   0  0  0  0  0  0  0  0  0  0  0  0
   16.2790   11.1889   13.6895 Cl  0  0  0  0  0  0  0  0  0  0  0  0
  1  2  1  0
  2  3  1  0
  3  4  1  0
  4  5  2  0
  4  6  1  0
  6  7  2  0
  6  8  1  0
  8  9  1  0
  9 10  2  0
 10 11  1  0
 10 12  1  0
 12 13  2  0
 13 14  1  0
 14 15  1  0
 14 16  2  0
 16 17  1  0
 16  9  1  0
M  END
>  <HIPPO ID>  (338) 
111991

>  <ref_url>  (338) 
None

>  <ref_pdb>  (338) 
c0270a

>  <inchikey>  (338) 
UXGUTQNHSIUKHO-UHFFFAOYSA-N

>  <original SMILES>  (338) 
CCOC(=O)C(=O)Nc1c(N)ccc(C)c1Cl

>  <generation_date>  (338) 
None

>  <tags>  (338) 
[]

>  <ref_mols>  (338) 
c0692a,c1116a

>  <alias>  (338) 
None

>  <original ID>  (338) 
UXGUTQNHSIUKHO-UHFFFAOYSA-N

>  <exports>  (338) 
['/opt/xchem-fragalysis-2/maxwin/CHIKV_HIPPO/hippo_prod/CHIKV_prod11c_recipes/Recipe_1GJXK8G_poses.sdf', '/opt/xchem-fragalysis-2/maxwin/CHIKV_HIPPO/hippo_prod/CHIKV_prod11c_recipes/Recipe_1GJXW46_poses.sdf']

>  <method>  (338) 
None

>  <submitter_email>  (338) 
None

>  <submitter_name>  (338) 
None

$$$$
SWGGQHAPDXQPTB-UHFFFAOYSA-N
     RDKit          3D

 17 17  0  0  0  0  0  0  0  0999 V2000
   22.5390   12.0504    9.7720 C   0  0  0  0  0  0  0  0  0  0  0  0
   21.9603   11.7862   11.1398 C   0  0  0  0  0  0  0  0  0  0  0  0
   20.5384   11.6339   11.0787 O   0  0  0  0  0  0  0  0  0  0  0  0
   19.8332   12.7680   11.3061 C   0  0  0  0  0  0  0  0  0  0  0  0
   20.2335   13.9136   11.3244 O   0  0  0  0  0  0  0  0  0  0  0  0
   18.3653   12.3959   11.5407 C   0  0  0  0  0  0  0  0  0  0  0  0
   17.5967   13.2041   12.0399 O   0  0  0  0  0  0  0  0  0  0  0  0
   18.0846   11.1240   11.1081 N   0  0  0  0  0  0  0  0  0  0  0  0
   16.8093   10.6082   10.9132 C   0  0  0  0  0  0  0  0  0  0  0  0
   16.7182    9.6891    9.8935 C   0  0  0  0  0  0  0  0  0  0  0  0
   15.5322    9.1988    9.4245 C   0  0  0  0  0  0  0  0  0  0  0  0
   14.3781    9.8349    9.7966 C   0  0  0  0  0  0  0  0  0  0  0  0
   13.1777    9.3159    9.0640 C   0  0  0  0  0  0  0  0  0  0  0  0
   14.4886   10.8261   10.8022 C   0  0  0  0  0  0  0  0  0  0  0  0
   13.4085   12.1615   10.9859 Cl  0  0  0  0  0  0  0  0  0  0  0  0
   15.6657   11.0661   11.5088 C   0  0  0  0  0  0  0  0  0  0  0  0
   15.6487   11.6716   12.7862 N   0  0  0  0  0  0  0  0  0  0  0  0
  1  2  1  0
  2  3  1  0
  3  4  1  0
  4  5  2  0
  4  6  1  0
  6  7  2  0
  6  8  1  0
  8  9  1  0
  9 10  2  0
 10 11  1  0
 11 12  2  0
 12 13  1  0
 12 14  1  0
 14 15  1  0
 14 16  2  0
 16 17  1  0
 16  9  1  0
M  END
>  <HIPPO ID>  (339) 
111992

>  <ref_url>  (339) 
None

>  <ref_pdb>  (339) 
c0270a

>  <inchikey>  (339) 
SWGGQHAPDXQPTB-UHFFFAOYSA-N

>  <original SMILES>  (339) 
CCOC(=O)C(=O)Nc1ccc(C)c(Cl)c1N

>  <generation_date>  (339) 
None

>  <tags>  (339) 
[]

>  <ref_mols>  (339) 
c0692a,c1116a

>  <alias>  (339) 
None

>  <original ID>  (339) 
SWGGQHAPDXQPTB-UHFFFAOYSA-N

>  <exports>  (339) 
['/opt/xchem-fragalysis-2/maxwin/CHIKV_HIPPO/hippo_prod/CHIKV_prod11c_recipes/Recipe_1GJXK8G_poses.sdf', '/opt/xchem-fragalysis-2/maxwin/CHIKV_HIPPO/hippo_prod/CHIKV_prod11c_recipes/Recipe_1GJXW46_poses.sdf']

>  <method>  (339) 
None

>  <submitter_email>  (339) 
None

>  <submitter_name>  (339) 
None

$$$$
VKICGRKEGWGYRG-UHFFFAOYSA-N
     RDKit          3D

 17 17  0  0  0  0  0  0  0  0999 V2000
   22.3056   12.0030    9.9110 C   0  0  0  0  0  0  0  0  0  0  0  0
   21.5502   11.5748   11.1464 C   0  0  0  0  0  0  0  0  0  0  0  0
   20.1561   11.3313   10.8998 O   0  0  0  0  0  0  0  0  0  0  0  0
   19.3663   12.4194   11.0170 C   0  0  0  0  0  0  0  0  0  0  0  0
   19.6869   13.5900   10.9467 O   0  0  0  0  0  0  0  0  0  0  0  0
   17.9416   11.9727   11.3617 C   0  0  0  0  0  0  0  0  0  0  0  0
   17.3791   12.5026   12.3115 O   0  0  0  0  0  0  0  0  0  0  0  0
   17.4282   10.9835   10.5475 N   0  0  0  0  0  0  0  0  0  0  0  0
   16.2979   10.1975   10.8283 C   0  0  0  0  0  0  0  0  0  0  0  0
   15.7300   10.1579   12.0862 C   0  0  0  0  0  0  0  0  0  0  0  0
   14.7863    9.1917   12.3529 C   0  0  0  0  0  0  0  0  0  0  0  0
   14.1816    9.2640   13.5374 F   0  0  0  0  0  0  0  0  0  0  0  0
   14.4227    8.2404   11.4032 C   0  0  0  0  0  0  0  0  0  0  0  0
   13.5076    7.2984   11.6711 F   0  0  0  0  0  0  0  0  0  0  0  0
   14.9032    8.3405   10.1208 C   0  0  0  0  0  0  0  0  0  0  0  0
   15.7872    9.3664    9.8155 C   0  0  0  0  0  0  0  0  0  0  0  0
   16.2587    9.4331    8.5161 N   0  0  0  0  0  0  0  0  0  0  0  0
  1  2  1  0
  2  3  1  0
  3  4  1  0
  4  5  2  0
  4  6  1  0
  6  7  2  0
  6  8  1  0
  8  9  1  0
  9 10  2  0
 10 11  1  0
 11 12  1  0
 11 13  2  0
 13 14  1  0
 13 15  1  0
 15 16  2  0
 16 17  1  0
 16  9  1  0
M  END
>  <HIPPO ID>  (340) 
112052

>  <ref_url>  (340) 
None

>  <ref_pdb>  (340) 
c0270a

>  <inchikey>  (340) 
VKICGRKEGWGYRG-UHFFFAOYSA-N

>  <original SMILES>  (340) 
CCOC(=O)C(=O)Nc1cc(F)c(F)cc1N

>  <generation_date>  (340) 
None

>  <tags>  (340) 
[]

>  <ref_mols>  (340) 
c0692a,c1116a

>  <alias>  (340) 
None

>  <original ID>  (340) 
VKICGRKEGWGYRG-UHFFFAOYSA-N

>  <exports>  (340) 
['/opt/xchem-fragalysis-2/maxwin/CHIKV_HIPPO/hippo_prod/CHIKV_prod11_recipes/Recipe_1GERJCJ_poses.sdf', '/opt/xchem-fragalysis-2/maxwin/CHIKV_HIPPO/hippo_prod/CHIKV_prod11c_recipes/Recipe_1GJXW46_poses.sdf']

>  <method>  (340) 
None

>  <submitter_email>  (340) 
None

>  <submitter_name>  (340) 
None

$$$$
ZFNBKTLANMTMGL-UHFFFAOYSA-N
     RDKit          3D

 17 18  0  0  0  0  0  0  0  0999 V2000
   22.3288   11.6953    9.9540 C   0  0  0  0  0  0  0  0  0  0  0  0
   21.5360   11.3917   11.2002 C   0  0  0  0  0  0  0  0  0  0  0  0
   20.1375   11.2557   10.9309 O   0  0  0  0  0  0  0  0  0  0  0  0
   19.4333   12.4062   11.0186 C   0  0  0  0  0  0  0  0  0  0  0  0
   19.9013   13.5344   10.9763 O   0  0  0  0  0  0  0  0  0  0  0  0
   17.9295   12.1342   11.1558 C   0  0  0  0  0  0  0  0  0  0  0  0
   17.2701   13.0263   11.6776 O   0  0  0  0  0  0  0  0  0  0  0  0
   17.5140   10.9988   10.4910 N   0  0  0  0  0  0  0  0  0  0  0  0
   16.3909   10.2090   10.7812 C   0  0  0  0  0  0  0  0  0  0  0  0
   15.9414    9.3535    9.7635 C   0  0  0  0  0  0  0  0  0  0  0  0
   14.9945    8.3702   10.0242 C   0  0  0  0  0  0  0  0  0  0  0  0
   14.5431    8.1948   11.3222 C   0  0  0  0  0  0  0  0  0  0  0  0
   14.9355    9.0779   12.3348 C   0  0  0  0  0  0  0  0  0  0  0  0
   15.8488   10.1161   12.0635 C   0  0  0  0  0  0  0  0  0  0  0  0
   16.1868   10.8998   13.1088 N   0  0  0  0  0  0  0  0  0  0  0  0
   15.1815   10.3472   14.3840 S   0  0  0  0  0  4  0  0  0  0  0  0
   14.4661    8.9944   13.5946 N   0  0  0  0  0  0  0  0  0  0  0  0
  1  2  1  0
  2  3  1  0
  3  4  1  0
  4  5  2  0
  4  6  1  0
  6  7  2  0
  6  8  1  0
  8  9  1  0
  9 10  2  0
 10 11  1  0
 11 12  2  0
 12 13  1  0
 13 14  2  0
 14 15  1  0
 15 16  2  0
 16 17  2  0
 14  9  1  0
 17 13  1  0
M  END
>  <HIPPO ID>  (341) 
112053

>  <ref_url>  (341) 
None

>  <ref_pdb>  (341) 
c0270a

>  <inchikey>  (341) 
ZFNBKTLANMTMGL-UHFFFAOYSA-N

>  <original SMILES>  (341) 
CCOC(=O)C(=O)Nc1cccc2c1N=S=N2

>  <generation_date>  (341) 
None

>  <tags>  (341) 
[]

>  <ref_mols>  (341) 
c0692a,c1116a

>  <alias>  (341) 
None

>  <original ID>  (341) 
ZFNBKTLANMTMGL-UHFFFAOYSA-N

>  <exports>  (341) 
['/opt/xchem-fragalysis-2/maxwin/CHIKV_HIPPO/hippo_prod/CHIKV_prod11c_recipes/Recipe_1GJXW46_poses.sdf']

>  <method>  (341) 
None

>  <submitter_email>  (341) 
None

>  <submitter_name>  (341) 
None

$$$$
QRCFCJMKYRBBIP-UHFFFAOYSA-N
     RDKit          3D

 17 17  0  0  0  0  0  0  0  0999 V2000
   22.1767   12.7981   10.4998 C   0  0  0  0  0  0  0  0  0  0  0  0
   21.5058   11.4376   10.5681 C   0  0  0  0  0  0  0  0  0  0  0  0
   20.0800   11.3772   10.8005 O   0  0  0  0  0  0  0  0  0  0  0  0
   19.3246   12.4769   10.9686 C   0  0  0  0  0  0  0  0  0  0  0  0
   19.6391   13.6471   10.8705 O   0  0  0  0  0  0  0  0  0  0  0  0
   17.8903   12.0568   11.3064 C   0  0  0  0  0  0  0  0  0  0  0  0
   17.2698   12.7151   12.1294 O   0  0  0  0  0  0  0  0  0  0  0  0
   17.4167   10.9863   10.5718 N   0  0  0  0  0  0  0  0  0  0  0  0
   16.3053   10.1903   10.9072 C   0  0  0  0  0  0  0  0  0  0  0  0
   15.7413    9.3729    9.9164 C   0  0  0  0  0  0  0  0  0  0  0  0
   16.1446    9.4547    8.5898 N   0  0  0  0  0  0  0  0  0  0  0  0
   14.8952    8.3222   10.2752 C   0  0  0  0  0  0  0  0  0  0  0  0
   14.5065    8.1634   11.5975 C   0  0  0  0  0  0  0  0  0  0  0  0
   14.9268    9.0978   12.5375 C   0  0  0  0  0  0  0  0  0  0  0  0
   14.2978    9.0959   14.3013 Br  0  0  0  0  0  0  0  0  0  0  0  0
   15.8355   10.0831   12.2064 C   0  0  0  0  0  0  0  0  0  0  0  0
   16.3558   10.8094   13.2031 F   0  0  0  0  0  0  0  0  0  0  0  0
  1  2  1  0
  2  3  1  0
  3  4  1  0
  4  5  2  0
  4  6  1  0
  6  7  2  0
  6  8  1  0
  8  9  1  0
  9 10  2  0
 10 11  1  0
 10 12  1  0
 12 13  2  0
 13 14  1  0
 14 15  1  0
 14 16  2  0
 16 17  1  0
 16  9  1  0
M  END
>  <HIPPO ID>  (342) 
112113

>  <ref_url>  (342) 
None

>  <ref_pdb>  (342) 
c0270a

>  <inchikey>  (342) 
QRCFCJMKYRBBIP-UHFFFAOYSA-N

>  <original SMILES>  (342) 
CCOC(=O)C(=O)Nc1c(N)ccc(Br)c1F

>  <generation_date>  (342) 
None

>  <tags>  (342) 
[]

>  <ref_mols>  (342) 
c0692a,c1116a

>  <alias>  (342) 
None

>  <original ID>  (342) 
QRCFCJMKYRBBIP-UHFFFAOYSA-N

>  <exports>  (342) 
['/opt/xchem-fragalysis-2/maxwin/CHIKV_HIPPO/hippo_prod/CHIKV_prod11c_recipes/Recipe_1GJWBFH_poses.sdf', '/opt/xchem-fragalysis-2/maxwin/CHIKV_HIPPO/hippo_prod/CHIKV_prod11c_recipes/Recipe_1GJXK8G_poses.sdf', '/opt/xchem-fragalysis-2/maxwin/CHIKV_HIPPO/hippo_prod/CHIKV_prod11c_recipes/Recipe_1GJXW46_poses.sdf']

>  <method>  (342) 
None

>  <submitter_email>  (342) 
None

>  <submitter_name>  (342) 
None

$$$$
FIFFQFFIUALHFS-UHFFFAOYSA-N
     RDKit          3D

 17 17  0  0  0  0  0  0  0  0999 V2000
   22.2727   11.6896   11.8634 C   0  0  0  0  0  0  0  0  0  0  0  0
   21.5302   11.6221   10.5455 C   0  0  0  0  0  0  0  0  0  0  0  0
   20.1382   11.3484   10.7744 O   0  0  0  0  0  0  0  0  0  0  0  0
   19.3659   12.4344   10.9926 C   0  0  0  0  0  0  0  0  0  0  0  0
   19.6917   13.6054   10.9441 O   0  0  0  0  0  0  0  0  0  0  0  0
   17.9319   11.9921   11.3125 C   0  0  0  0  0  0  0  0  0  0  0  0
   17.3057   12.5966   12.1754 O   0  0  0  0  0  0  0  0  0  0  0  0
   17.4720   10.9577   10.5267 N   0  0  0  0  0  0  0  0  0  0  0  0
   16.3307   10.1636   10.7248 C   0  0  0  0  0  0  0  0  0  0  0  0
   15.8937    9.4392    9.6060 C   0  0  0  0  0  0  0  0  0  0  0  0
   14.9269    8.4488    9.7171 C   0  0  0  0  0  0  0  0  0  0  0  0
   14.4593    8.1023   10.9640 C   0  0  0  0  0  0  0  0  0  0  0  0
   13.4064    6.5379   11.1323 Br  0  0  0  0  0  0  0  0  0  0  0  0
   14.8081    8.8992   12.0506 C   0  0  0  0  0  0  0  0  0  0  0  0
   14.2463    8.7143   13.2478 F   0  0  0  0  0  0  0  0  0  0  0  0
   15.6968    9.9734   11.9556 C   0  0  0  0  0  0  0  0  0  0  0  0
   16.1033   10.5831   13.1647 N   0  0  0  0  0  0  0  0  0  0  0  0
  1  2  1  0
  2  3  1  0
  3  4  1  0
  4  5  2  0
  4  6  1  0
  6  7  2  0
  6  8  1  0
  8  9  1  0
  9 10  2  0
 10 11  1  0
 11 12  2  0
 12 13  1  0
 12 14  1  0
 14 15  1  0
 14 16  2  0
 16 17  1  0
 16  9  1  0
M  END
>  <HIPPO ID>  (343) 
112114

>  <ref_url>  (343) 
None

>  <ref_pdb>  (343) 
c0270a

>  <inchikey>  (343) 
FIFFQFFIUALHFS-UHFFFAOYSA-N

>  <original SMILES>  (343) 
CCOC(=O)C(=O)Nc1ccc(Br)c(F)c1N

>  <generation_date>  (343) 
None

>  <tags>  (343) 
[]

>  <ref_mols>  (343) 
c0692a,c1116a

>  <alias>  (343) 
None

>  <original ID>  (343) 
FIFFQFFIUALHFS-UHFFFAOYSA-N

>  <exports>  (343) 
['/opt/xchem-fragalysis-2/maxwin/CHIKV_HIPPO/hippo_prod/CHIKV_prod11c_recipes/Recipe_1GJWBFH_poses.sdf', '/opt/xchem-fragalysis-2/maxwin/CHIKV_HIPPO/hippo_prod/CHIKV_prod11c_recipes/Recipe_1GJXK8G_poses.sdf', '/opt/xchem-fragalysis-2/maxwin/CHIKV_HIPPO/hippo_prod/CHIKV_prod11c_recipes/Recipe_1GJXW46_poses.sdf']

>  <method>  (343) 
None

>  <submitter_email>  (343) 
None

>  <submitter_name>  (343) 
None

$$$$
ORDPDCCBNMGJLC-UHFFFAOYSA-N
     RDKit          3D

 17 17  0  0  0  0  0  0  0  0999 V2000
   22.2750   11.7018   11.8574 C   0  0  0  0  0  0  0  0  0  0  0  0
   21.5362   11.6127   10.5384 C   0  0  0  0  0  0  0  0  0  0  0  0
   20.1455   11.3372   10.7736 O   0  0  0  0  0  0  0  0  0  0  0  0
   19.3706   12.4250   10.9699 C   0  0  0  0  0  0  0  0  0  0  0  0
   19.6787   13.5970   10.8709 O   0  0  0  0  0  0  0  0  0  0  0  0
   17.9638   11.9738   11.3671 C   0  0  0  0  0  0  0  0  0  0  0  0
   17.4362   12.4918   12.3427 O   0  0  0  0  0  0  0  0  0  0  0  0
   17.4223   10.9987   10.5511 N   0  0  0  0  0  0  0  0  0  0  0  0
   16.3056   10.2045   10.8548 C   0  0  0  0  0  0  0  0  0  0  0  0
   15.8008   10.1371   12.1389 C   0  0  0  0  0  0  0  0  0  0  0  0
   14.8760    9.1607   12.4517 C   0  0  0  0  0  0  0  0  0  0  0  0
   14.2823    9.2005   14.0508 Cl  0  0  0  0  0  0  0  0  0  0  0  0
   14.4557    8.2420   11.4903 C   0  0  0  0  0  0  0  0  0  0  0  0
   13.5509    7.2916   11.7679 F   0  0  0  0  0  0  0  0  0  0  0  0
   14.8810    8.3647   10.1847 C   0  0  0  0  0  0  0  0  0  0  0  0
   15.7591    9.3879    9.8520 C   0  0  0  0  0  0  0  0  0  0  0  0
   16.2003    9.4531    8.5409 N   0  0  0  0  0  0  0  0  0  0  0  0
  1  2  1  0
  2  3  1  0
  3  4  1  0
  4  5  2  0
  4  6  1  0
  6  7  2  0
  6  8  1  0
  8  9  1  0
  9 10  2  0
 10 11  1  0
 11 12  1  0
 11 13  2  0
 13 14  1  0
 13 15  1  0
 15 16  2  0
 16 17  1  0
 16  9  1  0
M  END
>  <HIPPO ID>  (344) 
112134

>  <ref_url>  (344) 
None

>  <ref_pdb>  (344) 
c0270a

>  <inchikey>  (344) 
ORDPDCCBNMGJLC-UHFFFAOYSA-N

>  <original SMILES>  (344) 
CCOC(=O)C(=O)Nc1cc(Cl)c(F)cc1N

>  <generation_date>  (344) 
None

>  <tags>  (344) 
[]

>  <ref_mols>  (344) 
c0692a,c1116a

>  <alias>  (344) 
None

>  <original ID>  (344) 
ORDPDCCBNMGJLC-UHFFFAOYSA-N

>  <exports>  (344) 
['/opt/xchem-fragalysis-2/maxwin/CHIKV_HIPPO/hippo_prod/CHIKV_prod11c_recipes/Recipe_1GJWBFH_poses.sdf', '/opt/xchem-fragalysis-2/maxwin/CHIKV_HIPPO/hippo_prod/CHIKV_prod11c_recipes/Recipe_1GJXK8G_poses.sdf', '/opt/xchem-fragalysis-2/maxwin/CHIKV_HIPPO/hippo_prod/CHIKV_prod11c_recipes/Recipe_1GJXW46_poses.sdf']

>  <method>  (344) 
None

>  <submitter_email>  (344) 
None

>  <submitter_name>  (344) 
None

$$$$
QLLSSOCVURYRNT-UHFFFAOYSA-N
     RDKit          3D

 17 17  0  0  0  0  0  0  0  0999 V2000
   22.1880   11.2216   10.1374 C   0  0  0  0  0  0  0  0  0  0  0  0
   21.2861   12.2580   10.7353 C   0  0  0  0  0  0  0  0  0  0  0  0
   19.9696   11.6988   10.8351 O   0  0  0  0  0  0  0  0  0  0  0  0
   19.0679   12.6301   11.1986 C   0  0  0  0  0  0  0  0  0  0  0  0
   19.2455   13.8307   11.2823 O   0  0  0  0  0  0  0  0  0  0  0  0
   17.7363   11.9764   11.5594 C   0  0  0  0  0  0  0  0  0  0  0  0
   17.1933   12.3358   12.5963 O   0  0  0  0  0  0  0  0  0  0  0  0
   17.2718   11.0339   10.6604 N   0  0  0  0  0  0  0  0  0  0  0  0
   16.1999   10.1493   10.8870 C   0  0  0  0  0  0  0  0  0  0  0  0
   15.6318    9.9897   12.1363 C   0  0  0  0  0  0  0  0  0  0  0  0
   14.7598    8.9410   12.3517 C   0  0  0  0  0  0  0  0  0  0  0  0
   14.1872    8.9018   13.5531 F   0  0  0  0  0  0  0  0  0  0  0  0
   14.4422    8.0271   11.3511 C   0  0  0  0  0  0  0  0  0  0  0  0
   13.4396    6.6539   11.6170 Cl  0  0  0  0  0  0  0  0  0  0  0  0
   14.9077    8.2610   10.0762 C   0  0  0  0  0  0  0  0  0  0  0  0
   15.7424    9.3479    9.8292 C   0  0  0  0  0  0  0  0  0  0  0  0
   16.2382    9.4732    8.5425 N   0  0  0  0  0  0  0  0  0  0  0  0
  1  2  1  0
  2  3  1  0
  3  4  1  0
  4  5  2  0
  4  6  1  0
  6  7  2  0
  6  8  1  0
  8  9  1  0
  9 10  2  0
 10 11  1  0
 11 12  1  0
 11 13  2  0
 13 14  1  0
 13 15  1  0
 15 16  2  0
 16 17  1  0
 16  9  1  0
M  END
>  <HIPPO ID>  (345) 
112135

>  <ref_url>  (345) 
None

>  <ref_pdb>  (345) 
c0270a

>  <inchikey>  (345) 
QLLSSOCVURYRNT-UHFFFAOYSA-N

>  <original SMILES>  (345) 
CCOC(=O)C(=O)Nc1cc(F)c(Cl)cc1N

>  <generation_date>  (345) 
None

>  <tags>  (345) 
[]

>  <ref_mols>  (345) 
c0692a,c1116a

>  <alias>  (345) 
None

>  <original ID>  (345) 
QLLSSOCVURYRNT-UHFFFAOYSA-N

>  <exports>  (345) 
['/opt/xchem-fragalysis-2/maxwin/CHIKV_HIPPO/hippo_prod/CHIKV_prod11c_recipes/Recipe_1GJWBFH_poses.sdf', '/opt/xchem-fragalysis-2/maxwin/CHIKV_HIPPO/hippo_prod/CHIKV_prod11c_recipes/Recipe_1GJXK8G_poses.sdf', '/opt/xchem-fragalysis-2/maxwin/CHIKV_HIPPO/hippo_prod/CHIKV_prod11c_recipes/Recipe_1GJXW46_poses.sdf']

>  <method>  (345) 
None

>  <submitter_email>  (345) 
None

>  <submitter_name>  (345) 
None

$$$$
GYQCZNDOPFWBQK-UHFFFAOYSA-N
     RDKit          3D

 17 17  0  0  0  0  0  0  0  0999 V2000
   23.0654   12.0191    9.0872 C   0  0  0  0  0  0  0  0  0  0  0  0
   22.2947   11.6830    9.9421 C   0  0  0  0  0  0  0  0  0  0  0  0
   21.4596   11.2044   11.0306 C   0  0  0  0  0  0  0  0  0  0  0  0
   20.0759   11.2160   10.6779 O   0  0  0  0  0  0  0  0  0  0  0  0
   19.4148   12.3948   11.1149 C   0  0  0  0  0  0  0  0  0  0  0  0
   17.9060   12.1779   11.2281 C   0  0  0  0  0  0  0  0  0  0  0  0
   17.1912   13.0299   11.7514 O   0  0  0  0  0  0  0  0  0  0  0  0
   17.4525   11.0138   10.6503 N   0  0  0  0  0  0  0  0  0  0  0  0
   16.2977   10.2664   10.9809 C   0  0  0  0  0  0  0  0  0  0  0  0
   15.7771    9.4267    9.9720 C   0  0  0  0  0  0  0  0  0  0  0  0
   16.2069    9.5000    8.6474 N   0  0  0  0  0  0  0  0  0  0  0  0
   14.9438    8.3607   10.2959 C   0  0  0  0  0  0  0  0  0  0  0  0
   14.5252    8.1875   11.6001 C   0  0  0  0  0  0  0  0  0  0  0  0
   14.8720    9.1312   12.5751 C   0  0  0  0  0  0  0  0  0  0  0  0
   14.2971    9.0256   13.9490 C   0  0  0  0  0  0  0  0  0  0  0  0
   15.7656   10.1703   12.2733 C   0  0  0  0  0  0  0  0  0  0  0  0
   16.2805   11.1469   13.6103 Cl  0  0  0  0  0  0  0  0  0  0  0  0
  1  2  3  0
  2  3  1  0
  3  4  1  0
  4  5  1  0
  5  6  1  0
  6  7  2  0
  6  8  1  0
  8  9  1  0
  9 10  2  0
 10 11  1  0
 10 12  1  0
 12 13  2  0
 13 14  1  0
 14 15  1  0
 14 16  2  0
 16 17  1  0
 16  9  1  0
M  END
>  <HIPPO ID>  (346) 
112239

>  <ref_url>  (346) 
None

>  <ref_pdb>  (346) 
c0270a

>  <inchikey>  (346) 
GYQCZNDOPFWBQK-UHFFFAOYSA-N

>  <original SMILES>  (346) 
C#CCOCC(=O)Nc1c(N)ccc(C)c1Cl

>  <generation_date>  (346) 
None

>  <tags>  (346) 
[]

>  <ref_mols>  (346) 
c0692a,c1116a

>  <alias>  (346) 
None

>  <original ID>  (346) 
GYQCZNDOPFWBQK-UHFFFAOYSA-N

>  <exports>  (346) 
['/opt/xchem-fragalysis-2/maxwin/CHIKV_HIPPO/hippo_prod/CHIKV_prod11c_recipes/Recipe_1GJXK8G_poses.sdf', '/opt/xchem-fragalysis-2/maxwin/CHIKV_HIPPO/hippo_prod/CHIKV_prod11c_recipes/Recipe_1GJXW46_poses.sdf']

>  <method>  (346) 
None

>  <submitter_email>  (346) 
None

>  <submitter_name>  (346) 
None

$$$$
JNHODBGOYNNYIN-UHFFFAOYSA-N
     RDKit          3D

 17 17  0  0  0  0  0  0  0  0999 V2000
   22.6163   13.6297   11.5683 C   0  0  0  0  0  0  0  0  0  0  0  0
   22.0720   12.6527   11.1335 C   0  0  0  0  0  0  0  0  0  0  0  0
   21.4052   11.4216   10.7024 C   0  0  0  0  0  0  0  0  0  0  0  0
   20.0235   11.6117   10.3694 O   0  0  0  0  0  0  0  0  0  0  0  0
   19.3302   12.5050   11.2299 C   0  0  0  0  0  0  0  0  0  0  0  0
   17.8615   12.1376   11.3732 C   0  0  0  0  0  0  0  0  0  0  0  0
   17.1155   12.7983   12.0962 O   0  0  0  0  0  0  0  0  0  0  0  0
   17.4857   11.0501   10.6217 N   0  0  0  0  0  0  0  0  0  0  0  0
   16.3482   10.2439   10.7769 C   0  0  0  0  0  0  0  0  0  0  0  0
   15.9799    9.4720    9.6668 C   0  0  0  0  0  0  0  0  0  0  0  0
   15.0249    8.4692    9.7691 C   0  0  0  0  0  0  0  0  0  0  0  0
   14.5089    8.1535   11.0054 C   0  0  0  0  0  0  0  0  0  0  0  0
   13.4639    6.5827   11.1688 Br  0  0  0  0  0  0  0  0  0  0  0  0
   14.8045    8.9853   12.0826 C   0  0  0  0  0  0  0  0  0  0  0  0
   14.2193    8.8111   13.2701 F   0  0  0  0  0  0  0  0  0  0  0  0
   15.6646   10.0813   11.9850 C   0  0  0  0  0  0  0  0  0  0  0  0
   15.9994   10.7569   13.1832 N   0  0  0  0  0  0  0  0  0  0  0  0
  1  2  3  0
  2  3  1  0
  3  4  1  0
  4  5  1  0
  5  6  1  0
  6  7  2  0
  6  8  1  0
  8  9  1  0
  9 10  2  0
 10 11  1  0
 11 12  2  0
 12 13  1  0
 12 14  1  0
 14 15  1  0
 14 16  2  0
 16 17  1  0
 16  9  1  0
M  END
>  <HIPPO ID>  (347) 
112501

>  <ref_url>  (347) 
None

>  <ref_pdb>  (347) 
c0270a

>  <inchikey>  (347) 
JNHODBGOYNNYIN-UHFFFAOYSA-N

>  <original SMILES>  (347) 
C#CCOCC(=O)Nc1ccc(Br)c(F)c1N

>  <generation_date>  (347) 
None

>  <tags>  (347) 
[]

>  <ref_mols>  (347) 
c0692a,c1116a

>  <alias>  (347) 
None

>  <original ID>  (347) 
JNHODBGOYNNYIN-UHFFFAOYSA-N

>  <exports>  (347) 
['/opt/xchem-fragalysis-2/maxwin/CHIKV_HIPPO/hippo_prod/CHIKV_prod11c_recipes/Recipe_1GJWBFH_poses.sdf', '/opt/xchem-fragalysis-2/maxwin/CHIKV_HIPPO/hippo_prod/CHIKV_prod11c_recipes/Recipe_1GJXK8G_poses.sdf', '/opt/xchem-fragalysis-2/maxwin/CHIKV_HIPPO/hippo_prod/CHIKV_prod11c_recipes/Recipe_1GJXW46_poses.sdf']

>  <method>  (347) 
None

>  <submitter_email>  (347) 
None

>  <submitter_name>  (347) 
None

$$$$
QAURHVJJODWUKJ-UHFFFAOYSA-N
     RDKit          3D

 17 17  0  0  0  0  0  0  0  0999 V2000
   22.5520   12.2808   12.9252 C   0  0  0  0  0  0  0  0  0  0  0  0
   22.1211   11.9647   11.8503 C   0  0  0  0  0  0  0  0  0  0  0  0
   21.5473   11.6308   10.5457 C   0  0  0  0  0  0  0  0  0  0  0  0
   20.1426   11.3427   10.6404 O   0  0  0  0  0  0  0  0  0  0  0  0
   19.3887   12.4521   11.1150 C   0  0  0  0  0  0  0  0  0  0  0  0
   17.9066   12.1294   11.2713 C   0  0  0  0  0  0  0  0  0  0  0  0
   17.1698   12.8720   11.9183 O   0  0  0  0  0  0  0  0  0  0  0  0
   17.4841   11.0118   10.5843 N   0  0  0  0  0  0  0  0  0  0  0  0
   16.3495   10.2424   10.9039 C   0  0  0  0  0  0  0  0  0  0  0  0
   15.7907    9.4017    9.9295 C   0  0  0  0  0  0  0  0  0  0  0  0
   16.1945    9.4531    8.5999 N   0  0  0  0  0  0  0  0  0  0  0  0
   14.9388    8.3628   10.3071 C   0  0  0  0  0  0  0  0  0  0  0  0
   14.5395    8.2401   11.6296 C   0  0  0  0  0  0  0  0  0  0  0  0
   14.9487    9.2021   12.5474 C   0  0  0  0  0  0  0  0  0  0  0  0
   14.3067    9.2414   14.3055 Br  0  0  0  0  0  0  0  0  0  0  0  0
   15.8616   10.1778   12.1993 C   0  0  0  0  0  0  0  0  0  0  0  0
   16.3749   10.9349   13.1784 F   0  0  0  0  0  0  0  0  0  0  0  0
  1  2  3  0
  2  3  1  0
  3  4  1  0
  4  5  1  0
  5  6  1  0
  6  7  2  0
  6  8  1  0
  8  9  1  0
  9 10  2  0
 10 11  1  0
 10 12  1  0
 12 13  2  0
 13 14  1  0
 14 15  1  0
 14 16  2  0
 16 17  1  0
 16  9  1  0
M  END
>  <HIPPO ID>  (348) 
112508

>  <ref_url>  (348) 
None

>  <ref_pdb>  (348) 
c0270a

>  <inchikey>  (348) 
QAURHVJJODWUKJ-UHFFFAOYSA-N

>  <original SMILES>  (348) 
C#CCOCC(=O)Nc1c(N)ccc(Br)c1F

>  <generation_date>  (348) 
None

>  <tags>  (348) 
[]

>  <ref_mols>  (348) 
c0692a,c1116a

>  <alias>  (348) 
None

>  <original ID>  (348) 
QAURHVJJODWUKJ-UHFFFAOYSA-N

>  <exports>  (348) 
['/opt/xchem-fragalysis-2/maxwin/CHIKV_HIPPO/hippo_prod/CHIKV_prod11c_recipes/Recipe_1GJWBFH_poses.sdf', '/opt/xchem-fragalysis-2/maxwin/CHIKV_HIPPO/hippo_prod/CHIKV_prod11c_recipes/Recipe_1GJXK8G_poses.sdf', '/opt/xchem-fragalysis-2/maxwin/CHIKV_HIPPO/hippo_prod/CHIKV_prod11c_recipes/Recipe_1GJXW46_poses.sdf']

>  <method>  (348) 
None

>  <submitter_email>  (348) 
None

>  <submitter_name>  (348) 
None

$$$$
UFEHJSCNFWABPM-UHFFFAOYSA-N
     RDKit          3D

 17 18  0  0  0  0  0  0  0  0999 V2000
   22.5034   13.7507   11.6279 C   0  0  0  0  0  0  0  0  0  0  0  0
   22.0706   12.7099   11.2144 C   0  0  0  0  0  0  0  0  0  0  0  0
   21.4364   11.4467   10.8141 C   0  0  0  0  0  0  0  0  0  0  0  0
   20.0910   11.6241   10.3676 O   0  0  0  0  0  0  0  0  0  0  0  0
   19.3223   12.4676   11.2179 C   0  0  0  0  0  0  0  0  0  0  0  0
   17.8260   12.2092   11.2281 C   0  0  0  0  0  0  0  0  0  0  0  0
   17.0903   13.0822   11.6889 O   0  0  0  0  0  0  0  0  0  0  0  0
   17.4779   11.0528   10.5685 N   0  0  0  0  0  0  0  0  0  0  0  0
   16.3731   10.2288   10.8295 C   0  0  0  0  0  0  0  0  0  0  0  0
   15.9493    9.3837    9.7931 C   0  0  0  0  0  0  0  0  0  0  0  0
   15.0109    8.3849   10.0267 C   0  0  0  0  0  0  0  0  0  0  0  0
   14.5473    8.1792   11.3167 C   0  0  0  0  0  0  0  0  0  0  0  0
   14.9230    9.0437   12.3516 C   0  0  0  0  0  0  0  0  0  0  0  0
   15.8236   10.0999   12.1079 C   0  0  0  0  0  0  0  0  0  0  0  0
   16.1439   10.8676   13.1719 N   0  0  0  0  0  0  0  0  0  0  0  0
   15.1365   10.2743   14.4285 S   0  0  0  0  0  4  0  0  0  0  0  0
   14.4473    8.9265   13.6065 N   0  0  0  0  0  0  0  0  0  0  0  0
  1  2  3  0
  2  3  1  0
  3  4  1  0
  4  5  1  0
  5  6  1  0
  6  7  2  0
  6  8  1  0
  8  9  1  0
  9 10  2  0
 10 11  1  0
 11 12  2  0
 12 13  1  0
 13 14  2  0
 14 15  1  0
 15 16  2  0
 16 17  2  0
 14  9  1  0
 17 13  1  0
M  END
>  <HIPPO ID>  (349) 
112645

>  <ref_url>  (349) 
None

>  <ref_pdb>  (349) 
c0270a

>  <inchikey>  (349) 
UFEHJSCNFWABPM-UHFFFAOYSA-N

>  <original SMILES>  (349) 
C#CCOCC(=O)Nc1cccc2c1N=S=N2

>  <generation_date>  (349) 
None

>  <tags>  (349) 
[]

>  <ref_mols>  (349) 
c0692a,c1116a

>  <alias>  (349) 
None

>  <original ID>  (349) 
UFEHJSCNFWABPM-UHFFFAOYSA-N

>  <exports>  (349) 
['/opt/xchem-fragalysis-2/maxwin/CHIKV_HIPPO/hippo_prod/CHIKV_prod11c_recipes/Recipe_1GJXW46_poses.sdf']

>  <method>  (349) 
None

>  <submitter_email>  (349) 
None

>  <submitter_name>  (349) 
None

$$$$
NHDNDFIJOFMVFJ-UHFFFAOYSA-N
     RDKit          3D

 17 17  0  0  0  0  0  0  0  0999 V2000
   23.1552   11.3894    9.2820 C   0  0  0  0  0  0  0  0  0  0  0  0
   22.3013   11.4694   10.1174 C   0  0  0  0  0  0  0  0  0  0  0  0
   21.3560   11.6539   11.1974 C   0  0  0  0  0  0  0  0  0  0  0  0
   20.0203   11.5527   10.7060 O   0  0  0  0  0  0  0  0  0  0  0  0
   19.1998   12.5589   11.2731 C   0  0  0  0  0  0  0  0  0  0  0  0
   17.7635   12.1009   11.4577 C   0  0  0  0  0  0  0  0  0  0  0  0
   17.0425   12.6670   12.2783 O   0  0  0  0  0  0  0  0  0  0  0  0
   17.3759   11.0541   10.6490 N   0  0  0  0  0  0  0  0  0  0  0  0
   16.2690   10.2194   10.8776 C   0  0  0  0  0  0  0  0  0  0  0  0
   15.6896   10.1425   12.1300 C   0  0  0  0  0  0  0  0  0  0  0  0
   14.7643    9.1546   12.3736 C   0  0  0  0  0  0  0  0  0  0  0  0
   14.1565    9.1921   13.5580 F   0  0  0  0  0  0  0  0  0  0  0  0
   14.4191    8.2189   11.4029 C   0  0  0  0  0  0  0  0  0  0  0  0
   13.5035    7.2697   11.6434 F   0  0  0  0  0  0  0  0  0  0  0  0
   14.9195    8.3428   10.1301 C   0  0  0  0  0  0  0  0  0  0  0  0
   15.7989    9.3821    9.8495 C   0  0  0  0  0  0  0  0  0  0  0  0
   16.2874    9.4562    8.5550 N   0  0  0  0  0  0  0  0  0  0  0  0
  1  2  3  0
  2  3  1  0
  3  4  1  0
  4  5  1  0
  5  6  1  0
  6  7  2  0
  6  8  1  0
  8  9  1  0
  9 10  2  0
 10 11  1  0
 11 12  1  0
 11 13  2  0
 13 14  1  0
 13 15  1  0
 15 16  2  0
 16 17  1  0
 16  9  1  0
M  END
>  <HIPPO ID>  (350) 
112646

>  <ref_url>  (350) 
None

>  <ref_pdb>  (350) 
c0270a

>  <inchikey>  (350) 
NHDNDFIJOFMVFJ-UHFFFAOYSA-N

>  <original SMILES>  (350) 
C#CCOCC(=O)Nc1cc(F)c(F)cc1N

>  <generation_date>  (350) 
None

>  <tags>  (350) 
[]

>  <ref_mols>  (350) 
c0692a,c1116a

>  <alias>  (350) 
None

>  <original ID>  (350) 
NHDNDFIJOFMVFJ-UHFFFAOYSA-N

>  <exports>  (350) 
['/opt/xchem-fragalysis-2/maxwin/CHIKV_HIPPO/hippo_prod/CHIKV_prod11c_recipes/Recipe_1GJXW46_poses.sdf']

>  <method>  (350) 
None

>  <submitter_email>  (350) 
None

>  <submitter_name>  (350) 
None

$$$$
RVKZEAKZGTVGIA-UHFFFAOYSA-N
     RDKit          3D

 17 17  0  0  0  0  0  0  0  0999 V2000
   22.6694   13.2064    9.0344 C   0  0  0  0  0  0  0  0  0  0  0  0
   22.1688   12.4273    9.8003 C   0  0  0  0  0  0  0  0  0  0  0  0
   21.5749   11.4138   10.6764 C   0  0  0  0  0  0  0  0  0  0  0  0
   20.1529   11.3326   10.5044 O   0  0  0  0  0  0  0  0  0  0  0  0
   19.4676   12.4147   11.1203 C   0  0  0  0  0  0  0  0  0  0  0  0
   17.9956   12.0785   11.3534 C   0  0  0  0  0  0  0  0  0  0  0  0
   17.3282   12.7209   12.1633 O   0  0  0  0  0  0  0  0  0  0  0  0
   17.5089   11.0408   10.5823 N   0  0  0  0  0  0  0  0  0  0  0  0
   16.3653   10.2726   10.8630 C   0  0  0  0  0  0  0  0  0  0  0  0
   15.8327   10.2476   12.1381 C   0  0  0  0  0  0  0  0  0  0  0  0
   14.8998    9.2819   12.4637 C   0  0  0  0  0  0  0  0  0  0  0  0
   14.2807    9.3667   14.0511 Cl  0  0  0  0  0  0  0  0  0  0  0  0
   14.4990    8.3306   11.5253 C   0  0  0  0  0  0  0  0  0  0  0  0
   13.6017    7.3773   11.8184 F   0  0  0  0  0  0  0  0  0  0  0  0
   14.9429    8.4154   10.2242 C   0  0  0  0  0  0  0  0  0  0  0  0
   15.8287    9.4274    9.8769 C   0  0  0  0  0  0  0  0  0  0  0  0
   16.2676    9.4577    8.5623 N   0  0  0  0  0  0  0  0  0  0  0  0
  1  2  3  0
  2  3  1  0
  3  4  1  0
  4  5  1  0
  5  6  1  0
  6  7  2  0
  6  8  1  0
  8  9  1  0
  9 10  2  0
 10 11  1  0
 11 12  1  0
 11 13  2  0
 13 14  1  0
 13 15  1  0
 15 16  2  0
 16 17  1  0
 16  9  1  0
M  END
>  <HIPPO ID>  (351) 
112655

>  <ref_url>  (351) 
None

>  <ref_pdb>  (351) 
c0270a

>  <inchikey>  (351) 
RVKZEAKZGTVGIA-UHFFFAOYSA-N

>  <original SMILES>  (351) 
C#CCOCC(=O)Nc1cc(Cl)c(F)cc1N

>  <generation_date>  (351) 
None

>  <tags>  (351) 
[]

>  <ref_mols>  (351) 
c0692a,c1116a

>  <alias>  (351) 
None

>  <original ID>  (351) 
RVKZEAKZGTVGIA-UHFFFAOYSA-N

>  <exports>  (351) 
['/opt/xchem-fragalysis-2/maxwin/CHIKV_HIPPO/hippo_prod/CHIKV_prod11c_recipes/Recipe_1GJWBFH_poses.sdf', '/opt/xchem-fragalysis-2/maxwin/CHIKV_HIPPO/hippo_prod/CHIKV_prod11c_recipes/Recipe_1GJXK8G_poses.sdf', '/opt/xchem-fragalysis-2/maxwin/CHIKV_HIPPO/hippo_prod/CHIKV_prod11c_recipes/Recipe_1GJXW46_poses.sdf']

>  <method>  (351) 
None

>  <submitter_email>  (351) 
None

>  <submitter_name>  (351) 
None

$$$$
XVBMZRODRGCHRP-UHFFFAOYSA-N
     RDKit          3D

 17 17  0  0  0  0  0  0  0  0999 V2000
   22.6949   11.3779   12.8008 C   0  0  0  0  0  0  0  0  0  0  0  0
   22.1388   11.4489   11.7392 C   0  0  0  0  0  0  0  0  0  0  0  0
   21.4752   11.5905   10.4437 C   0  0  0  0  0  0  0  0  0  0  0  0
   20.0666   11.3315   10.5429 O   0  0  0  0  0  0  0  0  0  0  0  0
   19.3580   12.4008   11.1595 C   0  0  0  0  0  0  0  0  0  0  0  0
   17.9017   12.0201   11.4370 C   0  0  0  0  0  0  0  0  0  0  0  0
   17.2586   12.5944   12.3137 O   0  0  0  0  0  0  0  0  0  0  0  0
   17.4058   11.0284   10.6154 N   0  0  0  0  0  0  0  0  0  0  0  0
   16.2787   10.2224   10.8595 C   0  0  0  0  0  0  0  0  0  0  0  0
   15.6841   10.1572   12.1038 C   0  0  0  0  0  0  0  0  0  0  0  0
   14.7995    9.1277   12.3670 C   0  0  0  0  0  0  0  0  0  0  0  0
   14.2080    9.1585   13.5604 F   0  0  0  0  0  0  0  0  0  0  0  0
   14.5027    8.1464   11.4206 C   0  0  0  0  0  0  0  0  0  0  0  0
   13.5303    6.7652   11.7597 Cl  0  0  0  0  0  0  0  0  0  0  0  0
   14.9763    8.3032   10.1378 C   0  0  0  0  0  0  0  0  0  0  0  0
   15.8175    9.3702    9.8420 C   0  0  0  0  0  0  0  0  0  0  0  0
   16.3095    9.4363    8.5469 N   0  0  0  0  0  0  0  0  0  0  0  0
  1  2  3  0
  2  3  1  0
  3  4  1  0
  4  5  1  0
  5  6  1  0
  6  7  2  0
  6  8  1  0
  8  9  1  0
  9 10  2  0
 10 11  1  0
 11 12  1  0
 11 13  2  0
 13 14  1  0
 13 15  1  0
 15 16  2  0
 16 17  1  0
 16  9  1  0
M  END
>  <HIPPO ID>  (352) 
112656

>  <ref_url>  (352) 
None

>  <ref_pdb>  (352) 
c0270a

>  <inchikey>  (352) 
XVBMZRODRGCHRP-UHFFFAOYSA-N

>  <original SMILES>  (352) 
C#CCOCC(=O)Nc1cc(F)c(Cl)cc1N

>  <generation_date>  (352) 
None

>  <tags>  (352) 
[]

>  <ref_mols>  (352) 
c0692a,c1116a

>  <alias>  (352) 
None

>  <original ID>  (352) 
XVBMZRODRGCHRP-UHFFFAOYSA-N

>  <exports>  (352) 
['/opt/xchem-fragalysis-2/maxwin/CHIKV_HIPPO/hippo_prod/CHIKV_prod11c_recipes/Recipe_1GJWBFH_poses.sdf', '/opt/xchem-fragalysis-2/maxwin/CHIKV_HIPPO/hippo_prod/CHIKV_prod11c_recipes/Recipe_1GJXK8G_poses.sdf', '/opt/xchem-fragalysis-2/maxwin/CHIKV_HIPPO/hippo_prod/CHIKV_prod11c_recipes/Recipe_1GJXW46_poses.sdf']

>  <method>  (352) 
None

>  <submitter_email>  (352) 
None

>  <submitter_name>  (352) 
None

$$$$
YAYSMZQHKVPAKO-UHFFFAOYSA-N
     RDKit          3D

 18 18  0  0  0  0  0  0  0  0999 V2000
   22.2998   12.7586   10.7837 C   0  0  0  0  0  0  0  0  0  0  0  0
   21.6240   11.4233   10.5320 C   0  0  0  0  0  0  0  0  0  0  0  0
   20.2214   11.3223   10.8519 O   0  0  0  0  0  0  0  0  0  0  0  0
   19.4323   12.4089   10.8922 C   0  0  0  0  0  0  0  0  0  0  0  0
   19.6867   13.5670   10.6273 O   0  0  0  0  0  0  0  0  0  0  0  0
   18.0415   11.9687   11.3295 C   0  0  0  0  0  0  0  0  0  0  0  0
   17.5682   12.4936   12.3216 O   0  0  0  0  0  0  0  0  0  0  0  0
   17.4674   11.0086   10.5247 N   0  0  0  0  0  0  0  0  0  0  0  0
   16.3329   10.2146   10.7688 C   0  0  0  0  0  0  0  0  0  0  0  0
   15.9405    9.3965    9.6943 C   0  0  0  0  0  0  0  0  0  0  0  0
   14.9773    8.3982    9.8432 C   0  0  0  0  0  0  0  0  0  0  0  0
   14.4433    8.1430   11.0877 C   0  0  0  0  0  0  0  0  0  0  0  0
   14.7554    9.0074   12.1231 C   0  0  0  0  0  0  0  0  0  0  0  0
   14.1380    8.8813   13.2967 F   0  0  0  0  0  0  0  0  0  0  0  0
   15.6390   10.0556   11.9589 C   0  0  0  0  0  0  0  0  0  0  0  0
   15.7295   10.8881   13.1172 N   0  0  0  0  0  4  0  0  0  0  0  0
   16.3639   10.4337   14.0792 O   0  0  0  0  0  0  0  0  0  0  0  0
   15.0792   11.9383   13.0998 O   0  0  0  0  0  1  0  0  0  0  0  0
  1  2  1  0
  2  3  1  0
  3  4  1  0
  4  5  2  0
  4  6  1  0
  6  7  2  0
  6  8  1  0
  8  9  1  0
  9 10  2  0
 10 11  1  0
 11 12  2  0
 12 13  1  0
 13 14  1  0
 13 15  2  0
 15 16  1  0
 16 17  2  0
 16 18  1  0
 15  9  1  0
M  CHG  2  16   1  18  -1
M  END
>  <HIPPO ID>  (353) 
112901

>  <ref_url>  (353) 
None

>  <ref_pdb>  (353) 
c0270a

>  <inchikey>  (353) 
YAYSMZQHKVPAKO-UHFFFAOYSA-N

>  <original SMILES>  (353) 
CCOC(=O)C(=O)Nc1cccc(F)c1[N+](=O)[O-]

>  <generation_date>  (353) 
None

>  <tags>  (353) 
[]

>  <ref_mols>  (353) 
c0692a,c1116a

>  <alias>  (353) 
None

>  <original ID>  (353) 
YAYSMZQHKVPAKO-UHFFFAOYSA-N

>  <exports>  (353) 
['/opt/xchem-fragalysis-2/maxwin/CHIKV_HIPPO/hippo_prod/CHIKV_prod11c_recipes/Recipe_1GJWBFH_poses.sdf', '/opt/xchem-fragalysis-2/maxwin/CHIKV_HIPPO/hippo_prod/CHIKV_prod11c_recipes/Recipe_1GJXK8G_poses.sdf', '/opt/xchem-fragalysis-2/maxwin/CHIKV_HIPPO/hippo_prod/CHIKV_prod11c_recipes/Recipe_1GJXW46_poses.sdf']

>  <method>  (353) 
None

>  <submitter_email>  (353) 
None

>  <submitter_name>  (353) 
None

$$$$
AHRXHFQLYSZECJ-UHFFFAOYSA-N
     RDKit          3D

 18 18  0  0  0  0  0  0  0  0999 V2000
   22.8510   11.0517   12.7559 C   0  0  0  0  0  0  0  0  0  0  0  0
   22.3784   11.2621   11.6733 C   0  0  0  0  0  0  0  0  0  0  0  0
   21.7804   11.5625   10.3764 C   0  0  0  0  0  0  0  0  0  0  0  0
   20.3644   11.3795   10.4428 O   0  0  0  0  0  0  0  0  0  0  0  0
   19.7266   12.4385   11.1541 C   0  0  0  0  0  0  0  0  0  0  0  0
   18.2537   12.1141   11.3120 C   0  0  0  0  0  0  0  0  0  0  0  0
   17.4598   12.9315   11.7729 O   0  0  0  0  0  0  0  0  0  0  0  0
   17.9232   10.8471   10.8517 N   0  0  0  0  0  0  0  0  0  0  0  0
   16.5945   10.4177   10.7241 C   0  0  0  0  0  0  0  0  0  0  0  0
   16.2969    9.6173    9.6208 C   0  0  0  0  0  0  0  0  0  0  0  0
   15.0067    9.4502    9.1740 C   0  0  0  0  0  0  0  0  0  0  0  0
   14.0592   10.2750    9.7102 C   0  0  0  0  0  0  0  0  0  0  0  0
   14.3343   11.0210   10.8608 C   0  0  0  0  0  0  0  0  0  0  0  0
   13.3946   11.8389   11.3378 F   0  0  0  0  0  0  0  0  0  0  0  0
   15.5518   10.9259   11.4745 C   0  0  0  0  0  0  0  0  0  0  0  0
   15.6666   11.1731   12.9034 N   0  0  0  0  0  4  0  0  0  0  0  0
   14.7664   11.7936   13.4821 O   0  0  0  0  0  0  0  0  0  0  0  0
   16.6193   10.6434   13.4983 O   0  0  0  0  0  1  0  0  0  0  0  0
  1  2  3  0
  2  3  1  0
  3  4  1  0
  4  5  1  0
  5  6  1  0
  6  7  2  0
  6  8  1  0
  8  9  1  0
  9 10  2  0
 10 11  1  0
 11 12  2  0
 12 13  1  0
 13 14  1  0
 13 15  2  0
 15 16  1  0
 16 17  2  0
 16 18  1  0
 15  9  1  0
M  CHG  2  16   1  18  -1
M  END
>  <HIPPO ID>  (354) 
112977

>  <ref_url>  (354) 
None

>  <ref_pdb>  (354) 
c0270a

>  <inchikey>  (354) 
AHRXHFQLYSZECJ-UHFFFAOYSA-N

>  <original SMILES>  (354) 
C#CCOCC(=O)Nc1cccc(F)c1[N+](=O)[O-]

>  <generation_date>  (354) 
None

>  <tags>  (354) 
[]

>  <ref_mols>  (354) 
c0692a,c1116a

>  <alias>  (354) 
None

>  <original ID>  (354) 
AHRXHFQLYSZECJ-UHFFFAOYSA-N

>  <exports>  (354) 
['/opt/xchem-fragalysis-2/maxwin/CHIKV_HIPPO/hippo_prod/CHIKV_prod11c_recipes/Recipe_1GJWBFH_poses.sdf', '/opt/xchem-fragalysis-2/maxwin/CHIKV_HIPPO/hippo_prod/CHIKV_prod11c_recipes/Recipe_1GJXK8G_poses.sdf', '/opt/xchem-fragalysis-2/maxwin/CHIKV_HIPPO/hippo_prod/CHIKV_prod11c_recipes/Recipe_1GJXW46_poses.sdf']

>  <method>  (354) 
None

>  <submitter_email>  (354) 
None

>  <submitter_name>  (354) 
None

$$$$
MYTMMWXECXOGMT-UHFFFAOYSA-N
     RDKit          3D

 18 19  0  0  0  0  0  0  0  0999 V2000
   22.0973   13.6365   10.1621 C   0  0  0  0  0  0  0  0  0  0  0  0
   21.7617   12.2789   10.7851 C   0  0  0  0  0  0  0  0  0  0  0  0
   22.2038   12.2055   12.2498 C   0  0  0  0  0  0  0  0  0  0  0  0
   22.5019   11.1929   10.0380 C   0  0  0  0  0  0  0  0  0  0  0  0
   20.3849   11.9508   10.6237 O   0  0  0  0  0  0  0  0  0  0  0  0
   19.4789   12.8643   11.2215 C   0  0  0  0  0  0  0  0  0  0  0  0
   18.3264   12.1204   11.8327 C   0  0  0  0  0  0  0  0  0  0  0  0
   17.9846   12.4421   12.9683 O   0  0  0  0  0  0  0  0  0  0  0  0
   17.9314   11.0501   11.0514 N   0  0  0  0  0  0  0  0  0  0  0  0
   16.6026   10.6529   10.8272 C   0  0  0  0  0  0  0  0  0  0  0  0
   16.3962    9.6613    9.8673 C   0  0  0  0  0  0  0  0  0  0  0  0
   15.1575    9.3722    9.3330 C   0  0  0  0  0  0  0  0  0  0  0  0
   14.1293   10.2110    9.6610 C   0  0  0  0  0  0  0  0  0  0  0  0
   14.3081   11.2065   10.6328 C   0  0  0  0  0  0  0  0  0  0  0  0
   15.5188   11.3457   11.3136 C   0  0  0  0  0  0  0  0  0  0  0  0
   15.5502   12.2645   12.2887 N   0  0  0  0  0  0  0  0  0  0  0  0
   14.0269   12.9828   12.2470 S   0  0  0  0  0  4  0  0  0  0  0  0
   13.3620   12.1093   10.9386 N   0  0  0  0  0  0  0  0  0  0  0  0
  1  2  1  0
  2  3  1  0
  2  4  1  0
  2  5  1  0
  5  6  1  0
  6  7  1  0
  7  8  2  0
  7  9  1  0
  9 10  1  0
 10 11  2  0
 11 12  1  0
 12 13  2  0
 13 14  1  0
 14 15  2  0
 15 16  1  0
 16 17  2  0
 17 18  2  0
 15 10  1  0
 18 14  1  0
M  END
>  <HIPPO ID>  (355) 
113041

>  <ref_url>  (355) 
None

>  <ref_pdb>  (355) 
c0270a

>  <inchikey>  (355) 
MYTMMWXECXOGMT-UHFFFAOYSA-N

>  <original SMILES>  (355) 
CC(C)(C)OCC(=O)Nc1cccc2c1N=S=N2

>  <generation_date>  (355) 
None

>  <tags>  (355) 
[]

>  <ref_mols>  (355) 
c0692a,c1116a

>  <alias>  (355) 
None

>  <original ID>  (355) 
MYTMMWXECXOGMT-UHFFFAOYSA-N

>  <exports>  (355) 
['/opt/xchem-fragalysis-2/maxwin/CHIKV_HIPPO/hippo_prod/CHIKV_prod11c_recipes/Recipe_1GJXW46_poses.sdf']

>  <method>  (355) 
None

>  <submitter_email>  (355) 
None

>  <submitter_name>  (355) 
None

$$$$
AEVVOFWFEFEAHM-UHFFFAOYSA-N
     RDKit          3D

 18 18  0  0  0  0  0  0  0  0999 V2000
   21.7699   13.5536   10.3332 C   0  0  0  0  0  0  0  0  0  0  0  0
   21.4918   12.1444   10.8742 C   0  0  0  0  0  0  0  0  0  0  0  0
   22.2661   11.1229   10.0660 C   0  0  0  0  0  0  0  0  0  0  0  0
   21.9969   12.0381   12.3159 C   0  0  0  0  0  0  0  0  0  0  0  0
   20.1075   11.7560   10.7530 O   0  0  0  0  0  0  0  0  0  0  0  0
   19.1865   12.6693   11.3112 C   0  0  0  0  0  0  0  0  0  0  0  0
   17.7755   12.1236   11.4926 C   0  0  0  0  0  0  0  0  0  0  0  0
   17.0212   12.6698   12.2987 O   0  0  0  0  0  0  0  0  0  0  0  0
   17.4268   11.0593   10.6865 N   0  0  0  0  0  0  0  0  0  0  0  0
   16.3136   10.2208   10.8998 C   0  0  0  0  0  0  0  0  0  0  0  0
   15.7221   10.1402   12.1478 C   0  0  0  0  0  0  0  0  0  0  0  0
   14.7794    9.1647   12.3805 C   0  0  0  0  0  0  0  0  0  0  0  0
   14.1583    9.2101   13.5577 F   0  0  0  0  0  0  0  0  0  0  0  0
   14.4334    8.2347   11.4064 C   0  0  0  0  0  0  0  0  0  0  0  0
   13.5099    7.2908   11.6370 F   0  0  0  0  0  0  0  0  0  0  0  0
   14.9455    8.3584   10.1390 C   0  0  0  0  0  0  0  0  0  0  0  0
   15.8370    9.3915    9.8671 C   0  0  0  0  0  0  0  0  0  0  0  0
   16.3166    9.4654    8.5702 N   0  0  0  0  0  0  0  0  0  0  0  0
  1  2  1  0
  2  3  1  0
  2  4  1  0
  2  5  1  0
  5  6  1  0
  6  7  1  0
  7  8  2  0
  7  9  1  0
  9 10  1  0
 10 11  2  0
 11 12  1  0
 12 13  1  0
 12 14  2  0
 14 15  1  0
 14 16  1  0
 16 17  2  0
 17 18  1  0
 17 10  1  0
M  END
>  <HIPPO ID>  (356) 
113044

>  <ref_url>  (356) 
None

>  <ref_pdb>  (356) 
c0270a

>  <inchikey>  (356) 
AEVVOFWFEFEAHM-UHFFFAOYSA-N

>  <original SMILES>  (356) 
CC(C)(C)OCC(=O)Nc1cc(F)c(F)cc1N

>  <generation_date>  (356) 
None

>  <tags>  (356) 
[]

>  <ref_mols>  (356) 
c0692a,c1116a

>  <alias>  (356) 
None

>  <original ID>  (356) 
AEVVOFWFEFEAHM-UHFFFAOYSA-N

>  <exports>  (356) 
['/opt/xchem-fragalysis-2/maxwin/CHIKV_HIPPO/hippo_prod/CHIKV_prod11_recipes/Recipe_1GERJCJ_poses.sdf', '/opt/xchem-fragalysis-2/maxwin/CHIKV_HIPPO/hippo_prod/CHIKV_prod11c_recipes/Recipe_1GJXW46_poses.sdf']

>  <method>  (356) 
None

>  <submitter_email>  (356) 
None

>  <submitter_name>  (356) 
None

$$$$
YCFGCZQMNMGSSP-UHFFFAOYSA-N
     RDKit          3D

 18 18  0  0  0  0  0  0  0  0999 V2000
   22.1853   11.0047   10.3197 C   0  0  0  0  0  0  0  0  0  0  0  0
   21.4292   12.2361   10.7732 C   0  0  0  0  0  0  0  0  0  0  0  0
   21.8916   12.5687   12.1934 C   0  0  0  0  0  0  0  0  0  0  0  0
   21.7836   13.4097    9.8478 C   0  0  0  0  0  0  0  0  0  0  0  0
   20.0410   11.8444   10.6877 O   0  0  0  0  0  0  0  0  0  0  0  0
   19.1225   12.7063   11.3247 C   0  0  0  0  0  0  0  0  0  0  0  0
   17.7174   12.1330   11.5093 C   0  0  0  0  0  0  0  0  0  0  0  0
   16.9681   12.6443   12.3422 O   0  0  0  0  0  0  0  0  0  0  0  0
   17.3735   11.0780   10.6901 N   0  0  0  0  0  0  0  0  0  0  0  0
   16.2774   10.2118   10.8963 C   0  0  0  0  0  0  0  0  0  0  0  0
   15.6752   10.0997   12.1364 C   0  0  0  0  0  0  0  0  0  0  0  0
   14.7915    9.0628   12.3698 C   0  0  0  0  0  0  0  0  0  0  0  0
   14.1946    9.0650   13.5606 F   0  0  0  0  0  0  0  0  0  0  0  0
   14.4988    8.1093   11.3979 C   0  0  0  0  0  0  0  0  0  0  0  0
   13.5083    6.7318   11.6927 Cl  0  0  0  0  0  0  0  0  0  0  0  0
   14.9923    8.2957   10.1269 C   0  0  0  0  0  0  0  0  0  0  0  0
   15.8384    9.3701    9.8609 C   0  0  0  0  0  0  0  0  0  0  0  0
   16.3353    9.4537    8.5699 N   0  0  0  0  0  0  0  0  0  0  0  0
  1  2  1  0
  2  3  1  0
  2  4  1  0
  2  5  1  0
  5  6  1  0
  6  7  1  0
  7  8  2  0
  7  9  1  0
  9 10  1  0
 10 11  2  0
 11 12  1  0
 12 13  1  0
 12 14  2  0
 14 15  1  0
 14 16  1  0
 16 17  2  0
 17 18  1  0
 17 10  1  0
M  END
>  <HIPPO ID>  (357) 
113081

>  <ref_url>  (357) 
None

>  <ref_pdb>  (357) 
c0270a

>  <inchikey>  (357) 
YCFGCZQMNMGSSP-UHFFFAOYSA-N

>  <original SMILES>  (357) 
CC(C)(C)OCC(=O)Nc1cc(F)c(Cl)cc1N

>  <generation_date>  (357) 
None

>  <tags>  (357) 
[]

>  <ref_mols>  (357) 
c0692a,c1116a

>  <alias>  (357) 
None

>  <original ID>  (357) 
YCFGCZQMNMGSSP-UHFFFAOYSA-N

>  <exports>  (357) 
['/opt/xchem-fragalysis-2/maxwin/CHIKV_HIPPO/hippo_prod/CHIKV_prod11_recipes/Recipe_1GERJCJ_poses.sdf', '/opt/xchem-fragalysis-2/maxwin/CHIKV_HIPPO/hippo_prod/CHIKV_prod11c_recipes/Recipe_1GJXK8G_poses.sdf', '/opt/xchem-fragalysis-2/maxwin/CHIKV_HIPPO/hippo_prod/CHIKV_prod11c_recipes/Recipe_1GJXW46_poses.sdf']

>  <method>  (357) 
None

>  <submitter_email>  (357) 
None

>  <submitter_name>  (357) 
None

$$$$
CTWNEBJEMUGKMW-UHFFFAOYSA-N
     RDKit          3D

 18 18  0  0  0  0  0  0  0  0999 V2000
   22.1065   11.3770   11.9699 C   0  0  0  0  0  0  0  0  0  0  0  0
   21.6266   12.3046   10.8598 C   0  0  0  0  0  0  0  0  0  0  0  0
   22.5073   12.0641    9.6412 C   0  0  0  0  0  0  0  0  0  0  0  0
   21.8384   13.7661   11.2778 C   0  0  0  0  0  0  0  0  0  0  0  0
   20.2547   11.9667   10.5212 O   0  0  0  0  0  0  0  0  0  0  0  0
   19.2912   12.6484   11.2962 C   0  0  0  0  0  0  0  0  0  0  0  0
   17.8623   12.1211   11.3997 C   0  0  0  0  0  0  0  0  0  0  0  0
   17.0756   12.7023   12.1519 O   0  0  0  0  0  0  0  0  0  0  0  0
   17.5321   11.0235   10.6364 N   0  0  0  0  0  0  0  0  0  0  0  0
   16.3993   10.2152   10.8790 C   0  0  0  0  0  0  0  0  0  0  0  0
   15.8651   10.1425   12.1554 C   0  0  0  0  0  0  0  0  0  0  0  0
   14.9091    9.1900   12.4500 C   0  0  0  0  0  0  0  0  0  0  0  0
   14.2848    9.2453   14.0369 Cl  0  0  0  0  0  0  0  0  0  0  0  0
   14.4906    8.2814   11.4814 C   0  0  0  0  0  0  0  0  0  0  0  0
   13.5693    7.3415   11.7404 F   0  0  0  0  0  0  0  0  0  0  0  0
   14.9486    8.3972   10.1874 C   0  0  0  0  0  0  0  0  0  0  0  0
   15.8579    9.4023    9.8713 C   0  0  0  0  0  0  0  0  0  0  0  0
   16.2926    9.4596    8.5576 N   0  0  0  0  0  0  0  0  0  0  0  0
  1  2  1  0
  2  3  1  0
  2  4  1  0
  2  5  1  0
  5  6  1  0
  6  7  1  0
  7  8  2  0
  7  9  1  0
  9 10  1  0
 10 11  2  0
 11 12  1  0
 12 13  1  0
 12 14  2  0
 14 15  1  0
 14 16  1  0
 16 17  2  0
 17 18  1  0
 17 10  1  0
M  END
>  <HIPPO ID>  (358) 
113083

>  <ref_url>  (358) 
None

>  <ref_pdb>  (358) 
c0270a

>  <inchikey>  (358) 
CTWNEBJEMUGKMW-UHFFFAOYSA-N

>  <original SMILES>  (358) 
CC(C)(C)OCC(=O)Nc1cc(Cl)c(F)cc1N

>  <generation_date>  (358) 
None

>  <tags>  (358) 
[]

>  <ref_mols>  (358) 
c0692a,c1116a

>  <alias>  (358) 
None

>  <original ID>  (358) 
CTWNEBJEMUGKMW-UHFFFAOYSA-N

>  <exports>  (358) 
['/opt/xchem-fragalysis-2/maxwin/CHIKV_HIPPO/hippo_prod/CHIKV_prod11_recipes/Recipe_1GERJCJ_poses.sdf', '/opt/xchem-fragalysis-2/maxwin/CHIKV_HIPPO/hippo_prod/CHIKV_prod11c_recipes/Recipe_1GJXK8G_poses.sdf', '/opt/xchem-fragalysis-2/maxwin/CHIKV_HIPPO/hippo_prod/CHIKV_prod11c_recipes/Recipe_1GJXW46_poses.sdf']

>  <method>  (358) 
None

>  <submitter_email>  (358) 
None

>  <submitter_name>  (358) 
None

$$$$
UPVAXRPWNHYQBB-UHFFFAOYSA-N
     RDKit          3D

 18 18  0  0  0  0  0  0  0  0999 V2000
   21.8605   13.5328   10.1947 C   0  0  0  0  0  0  0  0  0  0  0  0
   21.5257   12.1849   10.8450 C   0  0  0  0  0  0  0  0  0  0  0  0
   22.2282   11.0644   10.1066 C   0  0  0  0  0  0  0  0  0  0  0  0
   22.0479   12.1735   12.2842 C   0  0  0  0  0  0  0  0  0  0  0  0
   20.1280   11.8547   10.7565 O   0  0  0  0  0  0  0  0  0  0  0  0
   19.2498   12.7725   11.3753 C   0  0  0  0  0  0  0  0  0  0  0  0
   17.8130   12.2724   11.4534 C   0  0  0  0  0  0  0  0  0  0  0  0
   16.9786   12.9060   12.1028 O   0  0  0  0  0  0  0  0  0  0  0  0
   17.5485   11.1369   10.7248 N   0  0  0  0  0  0  0  0  0  0  0  0
   16.4189   10.3040   10.8382 C   0  0  0  0  0  0  0  0  0  0  0  0
   16.0989    9.5166    9.7250 C   0  0  0  0  0  0  0  0  0  0  0  0
   15.1380    8.5147    9.7947 C   0  0  0  0  0  0  0  0  0  0  0  0
   14.5683    8.2071   11.0087 C   0  0  0  0  0  0  0  0  0  0  0  0
   13.5176    6.6367   11.1355 Br  0  0  0  0  0  0  0  0  0  0  0  0
   14.8272    9.0410   12.0925 C   0  0  0  0  0  0  0  0  0  0  0  0
   14.2080    8.8667   13.2625 F   0  0  0  0  0  0  0  0  0  0  0  0
   15.6905   10.1382   12.0212 C   0  0  0  0  0  0  0  0  0  0  0  0
   15.9805   10.8182   13.2308 N   0  0  0  0  0  0  0  0  0  0  0  0
  1  2  1  0
  2  3  1  0
  2  4  1  0
  2  5  1  0
  5  6  1  0
  6  7  1  0
  7  8  2  0
  7  9  1  0
  9 10  1  0
 10 11  2  0
 11 12  1  0
 12 13  2  0
 13 14  1  0
 13 15  1  0
 15 16  1  0
 15 17  2  0
 17 18  1  0
 17 10  1  0
M  END
>  <HIPPO ID>  (359) 
113094

>  <ref_url>  (359) 
None

>  <ref_pdb>  (359) 
c0270a

>  <inchikey>  (359) 
UPVAXRPWNHYQBB-UHFFFAOYSA-N

>  <original SMILES>  (359) 
CC(C)(C)OCC(=O)Nc1ccc(Br)c(F)c1N

>  <generation_date>  (359) 
None

>  <tags>  (359) 
[]

>  <ref_mols>  (359) 
c0692a,c1116a

>  <alias>  (359) 
None

>  <original ID>  (359) 
UPVAXRPWNHYQBB-UHFFFAOYSA-N

>  <exports>  (359) 
['/opt/xchem-fragalysis-2/maxwin/CHIKV_HIPPO/hippo_prod/CHIKV_prod11c_recipes/Recipe_1GJXK8G_poses.sdf', '/opt/xchem-fragalysis-2/maxwin/CHIKV_HIPPO/hippo_prod/CHIKV_prod11c_recipes/Recipe_1GJXW46_poses.sdf']

>  <method>  (359) 
None

>  <submitter_email>  (359) 
None

>  <submitter_name>  (359) 
None

$$$$
QSOUUPMSYHPPNU-UHFFFAOYSA-N
     RDKit          3D

 18 18  0  0  0  0  0  0  0  0999 V2000
   21.8187   13.5263   10.1828 C   0  0  0  0  0  0  0  0  0  0  0  0
   21.4874   12.1817   10.8422 C   0  0  0  0  0  0  0  0  0  0  0  0
   21.9730   12.2101   12.2936 C   0  0  0  0  0  0  0  0  0  0  0  0
   22.2398   11.0688   10.1425 C   0  0  0  0  0  0  0  0  0  0  0  0
   20.1000   11.8131   10.7216 O   0  0  0  0  0  0  0  0  0  0  0  0
   19.1870   12.7157   11.3091 C   0  0  0  0  0  0  0  0  0  0  0  0
   17.7479   12.2166   11.3719 C   0  0  0  0  0  0  0  0  0  0  0  0
   16.9041   12.8758   11.9807 O   0  0  0  0  0  0  0  0  0  0  0  0
   17.4722   11.0585   10.6738 N   0  0  0  0  0  0  0  0  0  0  0  0
   16.3632   10.2284   10.9467 C   0  0  0  0  0  0  0  0  0  0  0  0
   15.8228    9.4015    9.9506 C   0  0  0  0  0  0  0  0  0  0  0  0
   16.2367    9.4656    8.6257 N   0  0  0  0  0  0  0  0  0  0  0  0
   14.9613    8.3571   10.2985 C   0  0  0  0  0  0  0  0  0  0  0  0
   14.5395    8.2067   11.6113 C   0  0  0  0  0  0  0  0  0  0  0  0
   14.9491    9.1385   12.5572 C   0  0  0  0  0  0  0  0  0  0  0  0
   14.2918    9.1420   14.3099 Br  0  0  0  0  0  0  0  0  0  0  0  0
   15.8717   10.1152   12.2402 C   0  0  0  0  0  0  0  0  0  0  0  0
   16.4003   10.8281   13.2458 F   0  0  0  0  0  0  0  0  0  0  0  0
  1  2  1  0
  2  3  1  0
  2  4  1  0
  2  5  1  0
  5  6  1  0
  6  7  1  0
  7  8  2  0
  7  9  1  0
  9 10  1  0
 10 11  2  0
 11 12  1  0
 11 13  1  0
 13 14  2  0
 14 15  1  0
 15 16  1  0
 15 17  2  0
 17 18  1  0
 17 10  1  0
M  END
>  <HIPPO ID>  (360) 
113095

>  <ref_url>  (360) 
None

>  <ref_pdb>  (360) 
c0270a

>  <inchikey>  (360) 
QSOUUPMSYHPPNU-UHFFFAOYSA-N

>  <original SMILES>  (360) 
CC(C)(C)OCC(=O)Nc1c(N)ccc(Br)c1F

>  <generation_date>  (360) 
None

>  <tags>  (360) 
[]

>  <ref_mols>  (360) 
c0692a,c1116a

>  <alias>  (360) 
None

>  <original ID>  (360) 
QSOUUPMSYHPPNU-UHFFFAOYSA-N

>  <exports>  (360) 
['/opt/xchem-fragalysis-2/maxwin/CHIKV_HIPPO/hippo_prod/CHIKV_prod11c_recipes/Recipe_1GJXK8G_poses.sdf', '/opt/xchem-fragalysis-2/maxwin/CHIKV_HIPPO/hippo_prod/CHIKV_prod11c_recipes/Recipe_1GJXW46_poses.sdf']

>  <method>  (360) 
None

>  <submitter_email>  (360) 
None

>  <submitter_name>  (360) 
None

$$$$
RBXGBZIZXZWYLY-UHFFFAOYSA-N
     RDKit          3D

 18 18  0  0  0  0  0  0  0  0999 V2000
   15.9638   10.7459   13.2002 N   0  0  0  0  0  0  0  0  0  0  0  0
   15.6350   10.0703   12.0008 C   0  0  0  0  0  0  0  0  0  0  0  0
   16.3127   10.2441   10.7918 C   0  0  0  0  0  0  0  0  0  0  0  0
   17.4373   11.0651   10.6344 N   0  0  0  0  0  0  0  0  0  0  0  0
   17.8232   12.1389   11.4012 C   0  0  0  0  0  0  0  0  0  0  0  0
   17.0876   12.7963   12.1368 O   0  0  0  0  0  0  0  0  0  0  0  0
   19.2840   12.5149   11.2232 C   0  0  0  0  0  0  0  0  0  0  0  0
   19.9968   11.4639   10.5773 O   0  0  0  0  0  0  0  0  0  0  0  0
   21.3741   11.7901   10.4190 C   0  0  0  0  0  0  0  0  0  0  0  0
   22.1765   11.4119   11.6500 C   0  0  0  0  0  0  0  0  0  0  0  0
   23.4299   12.2420   11.8365 C   0  0  0  0  0  0  0  0  0  0  0  0
   24.4275   12.5364   10.2026 Br  0  0  0  0  0  0  0  0  0  0  0  0
   15.9540    9.4704    9.6793 C   0  0  0  0  0  0  0  0  0  0  0  0
   15.0101    8.4573    9.7794 C   0  0  0  0  0  0  0  0  0  0  0  0
   14.4974    8.1342   11.0153 C   0  0  0  0  0  0  0  0  0  0  0  0
   13.4525    6.5631   11.1741 Br  0  0  0  0  0  0  0  0  0  0  0  0
   14.7890    8.9636   12.0957 C   0  0  0  0  0  0  0  0  0  0  0  0
   14.2089    8.7783   13.2841 F   0  0  0  0  0  0  0  0  0  0  0  0
  1  2  1  0
  2  3  2  0
  3  4  1  0
  4  5  1  0
  5  6  2  0
  5  7  1  0
  7  8  1  0
  8  9  1  0
  9 10  1  0
 10 11  1  0
 11 12  1  0
  3 13  1  0
 13 14  2  0
 14 15  1  0
 15 16  1  0
 15 17  2  0
 17 18  1  0
 17  2  1  0
M  END
>  <HIPPO ID>  (361) 
113170

>  <ref_url>  (361) 
None

>  <ref_pdb>  (361) 
c0270a

>  <inchikey>  (361) 
RBXGBZIZXZWYLY-UHFFFAOYSA-N

>  <original SMILES>  (361) 
Nc1c(NC(=O)COCCCBr)ccc(Br)c1F

>  <generation_date>  (361) 
None

>  <tags>  (361) 
[]

>  <ref_mols>  (361) 
c0692a,c1116a

>  <alias>  (361) 
None

>  <original ID>  (361) 
RBXGBZIZXZWYLY-UHFFFAOYSA-N

>  <exports>  (361) 
['/opt/xchem-fragalysis-2/maxwin/CHIKV_HIPPO/hippo_prod/CHIKV_prod11c_recipes/Recipe_1GJWBFH_poses.sdf', '/opt/xchem-fragalysis-2/maxwin/CHIKV_HIPPO/hippo_prod/CHIKV_prod11c_recipes/Recipe_1GJXK8G_poses.sdf', '/opt/xchem-fragalysis-2/maxwin/CHIKV_HIPPO/hippo_prod/CHIKV_prod11c_recipes/Recipe_1GJXW46_poses.sdf']

>  <method>  (361) 
None

>  <submitter_email>  (361) 
None

>  <submitter_name>  (361) 
None

$$$$
RVEAUIXSQBCHGY-UHFFFAOYSA-N
     RDKit          3D

 18 18  0  0  0  0  0  0  0  0999 V2000
   16.1768    9.4419    8.6084 N   0  0  0  0  0  0  0  0  0  0  0  0
   15.7519    9.3602    9.9296 C   0  0  0  0  0  0  0  0  0  0  0  0
   14.9062    8.3051   10.2776 C   0  0  0  0  0  0  0  0  0  0  0  0
   14.5027    8.1399   11.5957 C   0  0  0  0  0  0  0  0  0  0  0  0
   14.9125    9.0689   12.5461 C   0  0  0  0  0  0  0  0  0  0  0  0
   14.2818    9.0473   14.3089 Br  0  0  0  0  0  0  0  0  0  0  0  0
   15.8139   10.0629   12.2260 C   0  0  0  0  0  0  0  0  0  0  0  0
   16.3368   10.7836   13.2282 F   0  0  0  0  0  0  0  0  0  0  0  0
   16.2889   10.1831   10.9290 C   0  0  0  0  0  0  0  0  0  0  0  0
   17.3897   11.0044   10.6337 N   0  0  0  0  0  0  0  0  0  0  0  0
   17.7573   12.1160   11.3573 C   0  0  0  0  0  0  0  0  0  0  0  0
   17.0015   12.7993   12.0449 O   0  0  0  0  0  0  0  0  0  0  0  0
   19.2152   12.5073   11.2072 C   0  0  0  0  0  0  0  0  0  0  0  0
   19.9662   11.5850   10.4355 O   0  0  0  0  0  0  0  0  0  0  0  0
   21.3254   11.4680   10.8443 C   0  0  0  0  0  0  0  0  0  0  0  0
   22.2656   12.5245   10.2731 C   0  0  0  0  0  0  0  0  0  0  0  0
   21.9719   13.9615   10.6510 C   0  0  0  0  0  0  0  0  0  0  0  0
   21.1480   14.9685    9.2028 Br  0  0  0  0  0  0  0  0  0  0  0  0
  1  2  1  0
  2  3  2  0
  3  4  1  0
  4  5  2  0
  5  6  1  0
  5  7  1  0
  7  8  1  0
  7  9  2  0
  9 10  1  0
 10 11  1  0
 11 12  2  0
 11 13  1  0
 13 14  1  0
 14 15  1  0
 15 16  1  0
 16 17  1  0
 17 18  1  0
  9  2  1  0
M  END
>  <HIPPO ID>  (362) 
113171

>  <ref_url>  (362) 
None

>  <ref_pdb>  (362) 
c0270a

>  <inchikey>  (362) 
RVEAUIXSQBCHGY-UHFFFAOYSA-N

>  <original SMILES>  (362) 
Nc1ccc(Br)c(F)c1NC(=O)COCCCBr

>  <generation_date>  (362) 
None

>  <tags>  (362) 
[]

>  <ref_mols>  (362) 
c0692a,c1116a

>  <alias>  (362) 
None

>  <original ID>  (362) 
RVEAUIXSQBCHGY-UHFFFAOYSA-N

>  <exports>  (362) 
['/opt/xchem-fragalysis-2/maxwin/CHIKV_HIPPO/hippo_prod/CHIKV_prod11c_recipes/Recipe_1GJWBFH_poses.sdf', '/opt/xchem-fragalysis-2/maxwin/CHIKV_HIPPO/hippo_prod/CHIKV_prod11c_recipes/Recipe_1GJXK8G_poses.sdf', '/opt/xchem-fragalysis-2/maxwin/CHIKV_HIPPO/hippo_prod/CHIKV_prod11c_recipes/Recipe_1GJXW46_poses.sdf']

>  <method>  (362) 
None

>  <submitter_email>  (362) 
None

>  <submitter_name>  (362) 
None

$$$$
HPUSYFHMBZXPLC-UHFFFAOYSA-N
     RDKit          3D

 18 18  0  0  0  0  0  0  0  0999 V2000
   14.2422    9.0639   14.0541 C   0  0  0  0  0  0  0  0  0  0  0  0
   14.8813    9.1468   12.7082 C   0  0  0  0  0  0  0  0  0  0  0  0
   14.5650    8.2000   11.7304 C   0  0  0  0  0  0  0  0  0  0  0  0
   15.0562    8.3506   10.4510 C   0  0  0  0  0  0  0  0  0  0  0  0
   15.9626    9.3737   10.1596 C   0  0  0  0  0  0  0  0  0  0  0  0
   16.2532    9.5445    8.8147 N   0  0  0  0  0  0  0  0  0  0  0  0
   16.3748   10.2877   11.1579 C   0  0  0  0  0  0  0  0  0  0  0  0
   17.4906   11.1407   10.8925 N   0  0  0  0  0  0  0  0  0  0  0  0
   17.6510   12.4090   11.4155 C   0  0  0  0  0  0  0  0  0  0  0  0
   16.7137   13.1008   11.8205 O   0  0  0  0  0  0  0  0  0  0  0  0
   19.0527   13.0340   11.3517 C   0  0  0  0  0  0  0  0  0  0  0  0
   20.1183   12.2449   11.8130 O   0  0  0  0  0  0  0  0  0  0  0  0
   21.3867   12.9092   11.7952 C   0  0  0  0  0  0  0  0  0  0  0  0
   22.0612   12.9664   10.4160 C   0  0  0  0  0  0  0  0  0  0  0  0
   22.5068   11.6072    9.9300 C   0  0  0  0  0  0  0  0  0  0  0  0
   20.9680   10.4949    9.8123 Br  0  0  0  0  0  0  0  0  0  0  0  0
   15.7922   10.1797   12.4329 C   0  0  0  0  0  0  0  0  0  0  0  0
   16.2754   11.1474   13.7945 Cl  0  0  0  0  0  0  0  0  0  0  0  0
  1  2  1  0
  2  3  2  0
  3  4  1  0
  4  5  2  0
  5  6  1  0
  5  7  1  0
  7  8  1  0
  8  9  1  0
  9 10  2  0
  9 11  1  0
 11 12  1  0
 12 13  1  0
 13 14  1  0
 14 15  1  0
 15 16  1  0
  7 17  2  0
 17 18  1  0
 17  2  1  0
M  END
>  <HIPPO ID>  (363) 
113201

>  <ref_url>  (363) 
None

>  <ref_pdb>  (363) 
c0270a

>  <inchikey>  (363) 
HPUSYFHMBZXPLC-UHFFFAOYSA-N

>  <original SMILES>  (363) 
Cc1ccc(N)c(NC(=O)COCCCBr)c1Cl

>  <generation_date>  (363) 
None

>  <tags>  (363) 
[]

>  <ref_mols>  (363) 
c0692a,c1116a

>  <alias>  (363) 
None

>  <original ID>  (363) 
HPUSYFHMBZXPLC-UHFFFAOYSA-N

>  <exports>  (363) 
['/opt/xchem-fragalysis-2/maxwin/CHIKV_HIPPO/hippo_prod/CHIKV_prod11c_recipes/Recipe_1GJXK8G_poses.sdf', '/opt/xchem-fragalysis-2/maxwin/CHIKV_HIPPO/hippo_prod/CHIKV_prod11c_recipes/Recipe_1GJXW46_poses.sdf']

>  <method>  (363) 
None

>  <submitter_email>  (363) 
None

>  <submitter_name>  (363) 
None

$$$$
NDNAMPVCZPDUIL-UHFFFAOYSA-N
     RDKit          3D

 18 18  0  0  0  0  0  0  0  0999 V2000
   14.2763    8.9158   13.9554 C   0  0  0  0  0  0  0  0  0  0  0  0
   14.8593    9.0651   12.5898 C   0  0  0  0  0  0  0  0  0  0  0  0
   14.5216    8.1511   11.5856 C   0  0  0  0  0  0  0  0  0  0  0  0
   14.9570    8.3613   10.2927 C   0  0  0  0  0  0  0  0  0  0  0  0
   15.7940    9.4368   10.0037 C   0  0  0  0  0  0  0  0  0  0  0  0
   16.2210    9.5395    8.6841 N   0  0  0  0  0  0  0  0  0  0  0  0
   16.2951   10.2567   11.0376 C   0  0  0  0  0  0  0  0  0  0  0  0
   17.4351   11.0558   10.7603 N   0  0  0  0  0  0  0  0  0  0  0  0
   17.7368   12.2672   11.3428 C   0  0  0  0  0  0  0  0  0  0  0  0
   16.9008   13.0401   11.8119 O   0  0  0  0  0  0  0  0  0  0  0  0
   19.2106   12.6737   11.3224 C   0  0  0  0  0  0  0  0  0  0  0  0
   20.0699   11.6968   10.7751 O   0  0  0  0  0  0  0  0  0  0  0  0
   21.4770   11.9911   10.8470 C   0  0  0  0  0  0  0  0  0  0  0  0
   22.0334   11.8930   12.2661 C   0  0  0  0  0  0  0  0  0  0  0  0
   21.8633   13.3397   10.2409 C   0  0  0  0  0  0  0  0  0  0  0  0
   22.1223   10.8883   10.0501 C   0  0  0  0  0  0  0  0  0  0  0  0
   15.7515   10.1146   12.3239 C   0  0  0  0  0  0  0  0  0  0  0  0
   16.2575   11.0525   13.6956 Cl  0  0  0  0  0  0  0  0  0  0  0  0
  1  2  1  0
  2  3  2  0
  3  4  1  0
  4  5  2  0
  5  6  1  0
  5  7  1  0
  7  8  1  0
  8  9  1  0
  9 10  2  0
  9 11  1  0
 11 12  1  0
 12 13  1  0
 13 14  1  0
 13 15  1  0
 13 16  1  0
  7 17  2  0
 17 18  1  0
 17  2  1  0
M  END
>  <HIPPO ID>  (364) 
113233

>  <ref_url>  (364) 
None

>  <ref_pdb>  (364) 
c0270a

>  <inchikey>  (364) 
NDNAMPVCZPDUIL-UHFFFAOYSA-N

>  <original SMILES>  (364) 
Cc1ccc(N)c(NC(=O)COC(C)(C)C)c1Cl

>  <generation_date>  (364) 
None

>  <tags>  (364) 
[]

>  <ref_mols>  (364) 
c0692a,c1116a

>  <alias>  (364) 
None

>  <original ID>  (364) 
NDNAMPVCZPDUIL-UHFFFAOYSA-N

>  <exports>  (364) 
['/opt/xchem-fragalysis-2/maxwin/CHIKV_HIPPO/hippo_prod/CHIKV_prod11c_recipes/Recipe_1GJXK8G_poses.sdf', '/opt/xchem-fragalysis-2/maxwin/CHIKV_HIPPO/hippo_prod/CHIKV_prod11c_recipes/Recipe_1GJXW46_poses.sdf']

>  <method>  (364) 
None

>  <submitter_email>  (364) 
None

>  <submitter_name>  (364) 
None

$$$$
APKQWRJXKXVOND-UHFFFAOYSA-N
     RDKit          3D

 18 18  0  0  0  0  0  0  0  0999 V2000
   16.2912    9.4471    8.5491 N   0  0  0  0  0  0  0  0  0  0  0  0
   15.8066    9.3801    9.8460 C   0  0  0  0  0  0  0  0  0  0  0  0
   14.9236    8.3468   10.1346 C   0  0  0  0  0  0  0  0  0  0  0  0
   14.4261    8.2349   11.4094 C   0  0  0  0  0  0  0  0  0  0  0  0
   13.5109    7.2877   11.6593 F   0  0  0  0  0  0  0  0  0  0  0  0
   14.7749    9.1786   12.3716 C   0  0  0  0  0  0  0  0  0  0  0  0
   14.1639    9.2307   13.5540 F   0  0  0  0  0  0  0  0  0  0  0  0
   15.7081   10.1581   12.1208 C   0  0  0  0  0  0  0  0  0  0  0  0
   16.2871   10.2195   10.8681 C   0  0  0  0  0  0  0  0  0  0  0  0
   17.3988   11.0404   10.6216 N   0  0  0  0  0  0  0  0  0  0  0  0
   17.8361   12.0754   11.4199 C   0  0  0  0  0  0  0  0  0  0  0  0
   17.1778   12.6184   12.3053 O   0  0  0  0  0  0  0  0  0  0  0  0
   19.2547   12.5417   11.1254 C   0  0  0  0  0  0  0  0  0  0  0  0
   19.9637   11.6544   10.2683 O   0  0  0  0  0  0  0  0  0  0  0  0
   21.3831   11.8487   10.3678 C   0  0  0  0  0  0  0  0  0  0  0  0
   21.8920   10.9701   11.4834 C   0  0  0  0  0  0  0  0  0  0  0  0
   23.0189   11.5588   12.2845 C   0  0  0  0  0  0  0  0  0  0  0  0
   22.3529   12.9982   13.3864 Br  0  0  0  0  0  0  0  0  0  0  0  0
  1  2  1  0
  2  3  2  0
  3  4  1  0
  4  5  1  0
  4  6  2  0
  6  7  1  0
  6  8  1  0
  8  9  2  0
  9 10  1  0
 10 11  1  0
 11 12  2  0
 11 13  1  0
 13 14  1  0
 14 15  1  0
 15 16  1  0
 16 17  1  0
 17 18  1  0
  9  2  1  0
M  END
>  <HIPPO ID>  (365) 
113244

>  <ref_url>  (365) 
None

>  <ref_pdb>  (365) 
c0270a

>  <inchikey>  (365) 
APKQWRJXKXVOND-UHFFFAOYSA-N

>  <original SMILES>  (365) 
Nc1cc(F)c(F)cc1NC(=O)COCCCBr

>  <generation_date>  (365) 
None

>  <tags>  (365) 
[]

>  <ref_mols>  (365) 
c0692a,c1116a

>  <alias>  (365) 
None

>  <original ID>  (365) 
APKQWRJXKXVOND-UHFFFAOYSA-N

>  <exports>  (365) 
['/opt/xchem-fragalysis-2/maxwin/CHIKV_HIPPO/hippo_prod/CHIKV_prod11_recipes/Recipe_1GERJCJ_poses.sdf', '/opt/xchem-fragalysis-2/maxwin/CHIKV_HIPPO/hippo_prod/CHIKV_prod11c_recipes/Recipe_1GJXW46_poses.sdf']

>  <method>  (365) 
None

>  <submitter_email>  (365) 
None

>  <submitter_name>  (365) 
None

$$$$
GIKRGPZFQIFVCW-UHFFFAOYSA-N
     RDKit          3D

 18 18  0  0  0  0  0  0  0  0999 V2000
   16.2968    9.4398    8.5523 N   0  0  0  0  0  0  0  0  0  0  0  0
   15.7945    9.3563    9.8421 C   0  0  0  0  0  0  0  0  0  0  0  0
   14.9570    8.2812   10.1211 C   0  0  0  0  0  0  0  0  0  0  0  0
   14.4809    8.1007   11.4005 C   0  0  0  0  0  0  0  0  0  0  0  0
   13.4983    6.7214   11.7142 Cl  0  0  0  0  0  0  0  0  0  0  0  0
   14.7793    9.0618   12.3656 C   0  0  0  0  0  0  0  0  0  0  0  0
   14.1947    9.0668   13.5625 F   0  0  0  0  0  0  0  0  0  0  0  0
   15.6539   10.1022   12.1183 C   0  0  0  0  0  0  0  0  0  0  0  0
   16.2423   10.1985   10.8728 C   0  0  0  0  0  0  0  0  0  0  0  0
   17.3471   11.0361   10.6399 N   0  0  0  0  0  0  0  0  0  0  0  0
   17.8076   12.0304   11.4759 C   0  0  0  0  0  0  0  0  0  0  0  0
   17.1587   12.5607   12.3755 O   0  0  0  0  0  0  0  0  0  0  0  0
   19.2351   12.4821   11.1905 C   0  0  0  0  0  0  0  0  0  0  0  0
   20.0105   11.4598   10.5738 O   0  0  0  0  0  0  0  0  0  0  0  0
   21.4023   11.8061   10.5326 C   0  0  0  0  0  0  0  0  0  0  0  0
   22.0790   11.4905   11.8617 C   0  0  0  0  0  0  0  0  0  0  0  0
   23.1922   12.4439   12.2341 C   0  0  0  0  0  0  0  0  0  0  0  0
   24.6091   12.4798   10.9318 Br  0  0  0  0  0  0  0  0  0  0  0  0
  1  2  1  0
  2  3  2  0
  3  4  1  0
  4  5  1  0
  4  6  2  0
  6  7  1  0
  6  8  1  0
  8  9  2  0
  9 10  1  0
 10 11  1  0
 11 12  2  0
 11 13  1  0
 13 14  1  0
 14 15  1  0
 15 16  1  0
 16 17  1  0
 17 18  1  0
  9  2  1  0
M  END
>  <HIPPO ID>  (366) 
113254

>  <ref_url>  (366) 
None

>  <ref_pdb>  (366) 
c0270a

>  <inchikey>  (366) 
GIKRGPZFQIFVCW-UHFFFAOYSA-N

>  <original SMILES>  (366) 
Nc1cc(Cl)c(F)cc1NC(=O)COCCCBr

>  <generation_date>  (366) 
None

>  <tags>  (366) 
[]

>  <ref_mols>  (366) 
c0692a,c1116a

>  <alias>  (366) 
None

>  <original ID>  (366) 
GIKRGPZFQIFVCW-UHFFFAOYSA-N

>  <exports>  (366) 
['/opt/xchem-fragalysis-2/maxwin/CHIKV_HIPPO/hippo_prod/CHIKV_prod11_recipes/Recipe_1GERJCJ_poses.sdf', '/opt/xchem-fragalysis-2/maxwin/CHIKV_HIPPO/hippo_prod/CHIKV_prod11c_recipes/Recipe_1GJWBFH_poses.sdf', '/opt/xchem-fragalysis-2/maxwin/CHIKV_HIPPO/hippo_prod/CHIKV_prod11c_recipes/Recipe_1GJXK8G_poses.sdf', '/opt/xchem-fragalysis-2/maxwin/CHIKV_HIPPO/hippo_prod/CHIKV_prod11c_recipes/Recipe_1GJXW46_poses.sdf']

>  <method>  (366) 
None

>  <submitter_email>  (366) 
None

>  <submitter_name>  (366) 
None

$$$$
QKZBMWOFIJZGOW-UHFFFAOYSA-N
     RDKit          3D

 18 18  0  0  0  0  0  0  0  0999 V2000
   16.2302    9.4443    8.5487 N   0  0  0  0  0  0  0  0  0  0  0  0
   15.7765    9.3889    9.8575 C   0  0  0  0  0  0  0  0  0  0  0  0
   14.9000    8.3656   10.1934 C   0  0  0  0  0  0  0  0  0  0  0  0
   14.4634    8.2555   11.4969 C   0  0  0  0  0  0  0  0  0  0  0  0
   13.5639    7.3006   11.7777 F   0  0  0  0  0  0  0  0  0  0  0  0
   14.8696    9.1866   12.4533 C   0  0  0  0  0  0  0  0  0  0  0  0
   14.2764    9.2284   14.0526 Cl  0  0  0  0  0  0  0  0  0  0  0  0
   15.7845   10.1693   12.1363 C   0  0  0  0  0  0  0  0  0  0  0  0
   16.2993   10.2254   10.8549 C   0  0  0  0  0  0  0  0  0  0  0  0
   17.4198   11.0217   10.5767 N   0  0  0  0  0  0  0  0  0  0  0  0
   17.8525   12.0760   11.3498 C   0  0  0  0  0  0  0  0  0  0  0  0
   17.1445   12.7155   12.1272 O   0  0  0  0  0  0  0  0  0  0  0  0
   19.3149   12.4408   11.1664 C   0  0  0  0  0  0  0  0  0  0  0  0
   20.1059   11.2998   10.8670 O   0  0  0  0  0  0  0  0  0  0  0  0
   21.5043   11.5886   10.7399 C   0  0  0  0  0  0  0  0  0  0  0  0
   22.0774   12.2963   11.9689 C   0  0  0  0  0  0  0  0  0  0  0  0
   23.5799   12.4482   11.9738 C   0  0  0  0  0  0  0  0  0  0  0  0
   24.2000   13.4813   10.4639 Br  0  0  0  0  0  0  0  0  0  0  0  0
  1  2  1  0
  2  3  2  0
  3  4  1  0
  4  5  1  0
  4  6  2  0
  6  7  1  0
  6  8  1  0
  8  9  2  0
  9 10  1  0
 10 11  1  0
 11 12  2  0
 11 13  1  0
 13 14  1  0
 14 15  1  0
 15 16  1  0
 16 17  1  0
 17 18  1  0
  9  2  1  0
M  END
>  <HIPPO ID>  (367) 
113255

>  <ref_url>  (367) 
None

>  <ref_pdb>  (367) 
c0270a

>  <inchikey>  (367) 
QKZBMWOFIJZGOW-UHFFFAOYSA-N

>  <original SMILES>  (367) 
Nc1cc(F)c(Cl)cc1NC(=O)COCCCBr

>  <generation_date>  (367) 
None

>  <tags>  (367) 
[]

>  <ref_mols>  (367) 
c0692a,c1116a

>  <alias>  (367) 
None

>  <original ID>  (367) 
QKZBMWOFIJZGOW-UHFFFAOYSA-N

>  <exports>  (367) 
['/opt/xchem-fragalysis-2/maxwin/CHIKV_HIPPO/hippo_prod/CHIKV_prod11_recipes/Recipe_1GERJCJ_poses.sdf', '/opt/xchem-fragalysis-2/maxwin/CHIKV_HIPPO/hippo_prod/CHIKV_prod11c_recipes/Recipe_1GJWBFH_poses.sdf', '/opt/xchem-fragalysis-2/maxwin/CHIKV_HIPPO/hippo_prod/CHIKV_prod11c_recipes/Recipe_1GJXK8G_poses.sdf', '/opt/xchem-fragalysis-2/maxwin/CHIKV_HIPPO/hippo_prod/CHIKV_prod11c_recipes/Recipe_1GJXW46_poses.sdf']

>  <method>  (367) 
None

>  <submitter_email>  (367) 
None

>  <submitter_name>  (367) 
None

$$$$
YLMDEDREDNFDEZ-UHFFFAOYSA-N
     RDKit          3D

 18 19  0  0  0  0  0  0  0  0999 V2000
   17.1734   13.1512   11.7045 O   0  0  0  0  0  0  0  0  0  0  0  0
   17.9122   12.2745   11.2564 C   0  0  0  0  0  0  0  0  0  0  0  0
   19.4124   12.5354   11.2502 C   0  0  0  0  0  0  0  0  0  0  0  0
   20.1391   11.7739   10.2964 O   0  0  0  0  0  0  0  0  0  0  0  0
   21.4733   11.4859   10.6844 C   0  0  0  0  0  0  0  0  0  0  0  0
   22.3732   12.7120   10.8491 C   0  0  0  0  0  0  0  0  0  0  0  0
   22.7339   13.4221    9.5558 C   0  0  0  0  0  0  0  0  0  0  0  0
   21.5717   14.9570    9.2437 Br  0  0  0  0  0  0  0  0  0  0  0  0
   17.5688   11.1061   10.6114 N   0  0  0  0  0  0  0  0  0  0  0  0
   16.4469   10.2970   10.8556 C   0  0  0  0  0  0  0  0  0  0  0  0
   16.0356    9.4408    9.8219 C   0  0  0  0  0  0  0  0  0  0  0  0
   15.0820    8.4538   10.0459 C   0  0  0  0  0  0  0  0  0  0  0  0
   14.5876    8.2709   11.3272 C   0  0  0  0  0  0  0  0  0  0  0  0
   14.9484    9.1466   12.3584 C   0  0  0  0  0  0  0  0  0  0  0  0
   15.8668   10.1898   12.1221 C   0  0  0  0  0  0  0  0  0  0  0  0
   16.1747   10.9649   13.1844 N   0  0  0  0  0  0  0  0  0  0  0  0
   15.1375   10.3953   14.4272 S   0  0  0  0  0  4  0  0  0  0  0  0
   14.4463    9.0493   13.6047 N   0  0  0  0  0  0  0  0  0  0  0  0
  1  2  2  0
  2  3  1  0
  3  4  1  0
  4  5  1  0
  5  6  1  0
  6  7  1  0
  7  8  1  0
  2  9  1  0
  9 10  1  0
 10 11  2  0
 11 12  1  0
 12 13  2  0
 13 14  1  0
 14 15  2  0
 15 16  1  0
 16 17  2  0
 17 18  2  0
 15 10  1  0
 18 14  1  0
M  END
>  <HIPPO ID>  (368) 
113260

>  <ref_url>  (368) 
None

>  <ref_pdb>  (368) 
c0270a

>  <inchikey>  (368) 
YLMDEDREDNFDEZ-UHFFFAOYSA-N

>  <original SMILES>  (368) 
O=C(COCCCBr)Nc1cccc2c1N=S=N2

>  <generation_date>  (368) 
None

>  <tags>  (368) 
[]

>  <ref_mols>  (368) 
c0692a,c1116a

>  <alias>  (368) 
None

>  <original ID>  (368) 
YLMDEDREDNFDEZ-UHFFFAOYSA-N

>  <exports>  (368) 
['/opt/xchem-fragalysis-2/maxwin/CHIKV_HIPPO/hippo_prod/CHIKV_prod11c_recipes/Recipe_1GJXW46_poses.sdf']

>  <method>  (368) 
None

>  <submitter_email>  (368) 
None

>  <submitter_name>  (368) 
None

$$$$
UEQXNHLPXRFMBW-UHFFFAOYSA-N
     RDKit          3D

 18 18  0  0  0  0  0  0  0  0999 V2000
   23.0271   10.9735   13.4665 C   0  0  0  0  0  0  0  0  0  0  0  0
   22.6550   11.0158   12.3263 C   0  0  0  0  0  0  0  0  0  0  0  0
   22.2964   11.1230   10.9028 C   0  0  0  0  0  0  0  0  0  0  0  0
   21.3074   12.2517   10.7042 C   0  0  0  0  0  0  0  0  0  0  0  0
   19.9729   11.7225   10.7084 O   0  0  0  0  0  0  0  0  0  0  0  0
   19.0873   12.6371   11.3264 C   0  0  0  0  0  0  0  0  0  0  0  0
   17.6826   12.0908   11.5393 C   0  0  0  0  0  0  0  0  0  0  0  0
   16.9628   12.5886   12.4041 O   0  0  0  0  0  0  0  0  0  0  0  0
   17.3110   11.0663   10.6938 N   0  0  0  0  0  0  0  0  0  0  0  0
   16.2262   10.1916   10.8990 C   0  0  0  0  0  0  0  0  0  0  0  0
   15.6413   10.0550   12.1441 C   0  0  0  0  0  0  0  0  0  0  0  0
   14.7703    9.0073   12.3686 C   0  0  0  0  0  0  0  0  0  0  0  0
   14.1869    8.9842   13.5658 F   0  0  0  0  0  0  0  0  0  0  0  0
   14.4706    8.0713   11.3818 C   0  0  0  0  0  0  0  0  0  0  0  0
   13.4777    6.6928   11.6624 Cl  0  0  0  0  0  0  0  0  0  0  0  0
   14.9513    8.2812   10.1087 C   0  0  0  0  0  0  0  0  0  0  0  0
   15.7865    9.3657    9.8520 C   0  0  0  0  0  0  0  0  0  0  0  0
   16.2844    9.4711    8.5628 N   0  0  0  0  0  0  0  0  0  0  0  0
  1  2  3  0
  2  3  1  0
  3  4  1  0
  4  5  1  0
  5  6  1  0
  6  7  1  0
  7  8  2  0
  7  9  1  0
  9 10  1  0
 10 11  2  0
 11 12  1  0
 12 13  1  0
 12 14  2  0
 14 15  1  0
 14 16  1  0
 16 17  2  0
 17 18  1  0
 17 10  1  0
M  END
>  <HIPPO ID>  (369) 
113482

>  <ref_url>  (369) 
None

>  <ref_pdb>  (369) 
c0270a

>  <inchikey>  (369) 
UEQXNHLPXRFMBW-UHFFFAOYSA-N

>  <original SMILES>  (369) 
C#CCCOCC(=O)Nc1cc(F)c(Cl)cc1N

>  <generation_date>  (369) 
None

>  <tags>  (369) 
[]

>  <ref_mols>  (369) 
c0692a,c1116a

>  <alias>  (369) 
None

>  <original ID>  (369) 
UEQXNHLPXRFMBW-UHFFFAOYSA-N

>  <exports>  (369) 
['/opt/xchem-fragalysis-2/maxwin/CHIKV_HIPPO/hippo_prod/CHIKV_prod11_recipes/Recipe_1GERJCJ_poses.sdf', '/opt/xchem-fragalysis-2/maxwin/CHIKV_HIPPO/hippo_prod/CHIKV_prod11c_recipes/Recipe_1GJXK8G_poses.sdf', '/opt/xchem-fragalysis-2/maxwin/CHIKV_HIPPO/hippo_prod/CHIKV_prod11c_recipes/Recipe_1GJXW46_poses.sdf']

>  <method>  (369) 
None

>  <submitter_email>  (369) 
None

>  <submitter_name>  (369) 
None

$$$$
HFXXYRFVSDUHQI-UHFFFAOYSA-N
     RDKit          3D

 18 18  0  0  0  0  0  0  0  0999 V2000
   22.7230   13.4812    8.0072 C   0  0  0  0  0  0  0  0  0  0  0  0
   22.4120   13.2540    9.1428 C   0  0  0  0  0  0  0  0  0  0  0  0
   22.1691   12.8825   10.5375 C   0  0  0  0  0  0  0  0  0  0  0  0
   21.4536   11.5333   10.6767 C   0  0  0  0  0  0  0  0  0  0  0  0
   20.0477   11.5594   10.3867 O   0  0  0  0  0  0  0  0  0  0  0  0
   19.3319   12.4957   11.1744 C   0  0  0  0  0  0  0  0  0  0  0  0
   17.8869   12.0825   11.4142 C   0  0  0  0  0  0  0  0  0  0  0  0
   17.2118   12.6701   12.2581 O   0  0  0  0  0  0  0  0  0  0  0  0
   17.4406   11.0467   10.6196 N   0  0  0  0  0  0  0  0  0  0  0  0
   16.3219   10.2390   10.8837 C   0  0  0  0  0  0  0  0  0  0  0  0
   15.7971   10.1701   12.1610 C   0  0  0  0  0  0  0  0  0  0  0  0
   14.8754    9.1884   12.4653 C   0  0  0  0  0  0  0  0  0  0  0  0
   14.2698    9.2230   14.0600 Cl  0  0  0  0  0  0  0  0  0  0  0  0
   14.4723    8.2652   11.5014 C   0  0  0  0  0  0  0  0  0  0  0  0
   13.5691    7.3103   11.7697 F   0  0  0  0  0  0  0  0  0  0  0  0
   14.9182    8.3840   10.2027 C   0  0  0  0  0  0  0  0  0  0  0  0
   15.8004    9.4080    9.8784 C   0  0  0  0  0  0  0  0  0  0  0  0
   16.2528    9.4624    8.5687 N   0  0  0  0  0  0  0  0  0  0  0  0
  1  2  3  0
  2  3  1  0
  3  4  1  0
  4  5  1  0
  5  6  1  0
  6  7  1  0
  7  8  2  0
  7  9  1  0
  9 10  1  0
 10 11  2  0
 11 12  1  0
 12 13  1  0
 12 14  2  0
 14 15  1  0
 14 16  1  0
 16 17  2  0
 17 18  1  0
 17 10  1  0
M  END
>  <HIPPO ID>  (370) 
113483

>  <ref_url>  (370) 
None

>  <ref_pdb>  (370) 
c0270a

>  <inchikey>  (370) 
HFXXYRFVSDUHQI-UHFFFAOYSA-N

>  <original SMILES>  (370) 
C#CCCOCC(=O)Nc1cc(Cl)c(F)cc1N

>  <generation_date>  (370) 
None

>  <tags>  (370) 
[]

>  <ref_mols>  (370) 
c0692a,c1116a

>  <alias>  (370) 
None

>  <original ID>  (370) 
HFXXYRFVSDUHQI-UHFFFAOYSA-N

>  <exports>  (370) 
['/opt/xchem-fragalysis-2/maxwin/CHIKV_HIPPO/hippo_prod/CHIKV_prod11_recipes/Recipe_1GERJCJ_poses.sdf', '/opt/xchem-fragalysis-2/maxwin/CHIKV_HIPPO/hippo_prod/CHIKV_prod11c_recipes/Recipe_1GJXK8G_poses.sdf', '/opt/xchem-fragalysis-2/maxwin/CHIKV_HIPPO/hippo_prod/CHIKV_prod11c_recipes/Recipe_1GJXW46_poses.sdf']

>  <method>  (370) 
None

>  <submitter_email>  (370) 
None

>  <submitter_name>  (370) 
None

$$$$
UQUTXGMZCKTIAU-UHFFFAOYSA-N
     RDKit          3D

 18 19  0  0  0  0  0  0  0  0999 V2000
   21.2210   14.9014    8.7996 C   0  0  0  0  0  0  0  0  0  0  0  0
   21.6249   14.0929    9.5902 C   0  0  0  0  0  0  0  0  0  0  0  0
   22.0931   13.1554   10.6293 C   0  0  0  0  0  0  0  0  0  0  0  0
   21.4981   11.7449   10.5308 C   0  0  0  0  0  0  0  0  0  0  0  0
   20.0823   11.6798   10.3648 O   0  0  0  0  0  0  0  0  0  0  0  0
   19.3492   12.4911   11.2706 C   0  0  0  0  0  0  0  0  0  0  0  0
   17.8507   12.2397   11.2717 C   0  0  0  0  0  0  0  0  0  0  0  0
   17.1168   13.1211   11.7198 O   0  0  0  0  0  0  0  0  0  0  0  0
   17.5015   11.0874   10.6045 N   0  0  0  0  0  0  0  0  0  0  0  0
   16.3938   10.2644   10.8560 C   0  0  0  0  0  0  0  0  0  0  0  0
   15.9847    9.4092    9.8214 C   0  0  0  0  0  0  0  0  0  0  0  0
   15.0452    8.4105   10.0511 C   0  0  0  0  0  0  0  0  0  0  0  0
   14.5655    8.2159   11.3370 C   0  0  0  0  0  0  0  0  0  0  0  0
   14.9267    9.0903   12.3694 C   0  0  0  0  0  0  0  0  0  0  0  0
   15.8286   10.1457   12.1281 C   0  0  0  0  0  0  0  0  0  0  0  0
   16.1364   10.9217   13.1898 N   0  0  0  0  0  0  0  0  0  0  0  0
   15.1175   10.3365   14.4398 S   0  0  0  0  0  4  0  0  0  0  0  0
   14.4377    8.9825   13.6201 N   0  0  0  0  0  0  0  0  0  0  0  0
  1  2  3  0
  2  3  1  0
  3  4  1  0
  4  5  1  0
  5  6  1  0
  6  7  1  0
  7  8  2  0
  7  9  1  0
  9 10  1  0
 10 11  2  0
 11 12  1  0
 12 13  2  0
 13 14  1  0
 14 15  2  0
 15 16  1  0
 16 17  2  0
 17 18  2  0
 15 10  1  0
 18 14  1  0
M  END
>  <HIPPO ID>  (371) 
113509

>  <ref_url>  (371) 
None

>  <ref_pdb>  (371) 
c0270a

>  <inchikey>  (371) 
UQUTXGMZCKTIAU-UHFFFAOYSA-N

>  <original SMILES>  (371) 
C#CCCOCC(=O)Nc1cccc2c1N=S=N2

>  <generation_date>  (371) 
None

>  <tags>  (371) 
[]

>  <ref_mols>  (371) 
c0692a,c1116a

>  <alias>  (371) 
None

>  <original ID>  (371) 
UQUTXGMZCKTIAU-UHFFFAOYSA-N

>  <exports>  (371) 
['/opt/xchem-fragalysis-2/maxwin/CHIKV_HIPPO/hippo_prod/CHIKV_prod11c_recipes/Recipe_1GJXW46_poses.sdf']

>  <method>  (371) 
None

>  <submitter_email>  (371) 
None

>  <submitter_name>  (371) 
None

$$$$
YZTMDIDXCSTDKV-UHFFFAOYSA-N
     RDKit          3D

 18 18  0  0  0  0  0  0  0  0999 V2000
   21.1599   15.0051    9.3414 C   0  0  0  0  0  0  0  0  0  0  0  0
   21.6445   13.9334    9.5894 C   0  0  0  0  0  0  0  0  0  0  0  0
   22.2824   12.6197    9.8215 C   0  0  0  0  0  0  0  0  0  0  0  0
   21.5234   11.6958   10.7832 C   0  0  0  0  0  0  0  0  0  0  0  0
   20.1223   11.5263   10.5084 O   0  0  0  0  0  0  0  0  0  0  0  0
   19.3227   12.4896   11.1821 C   0  0  0  0  0  0  0  0  0  0  0  0
   17.8870   12.0406   11.4305 C   0  0  0  0  0  0  0  0  0  0  0  0
   17.2021   12.6145   12.2768 O   0  0  0  0  0  0  0  0  0  0  0  0
   17.4506   11.0090   10.6279 N   0  0  0  0  0  0  0  0  0  0  0  0
   16.3179   10.2102   10.8665 C   0  0  0  0  0  0  0  0  0  0  0  0
   15.7314   10.1589   12.1168 C   0  0  0  0  0  0  0  0  0  0  0  0
   14.7841    9.1920   12.3662 C   0  0  0  0  0  0  0  0  0  0  0  0
   14.1674    9.2559   13.5451 F   0  0  0  0  0  0  0  0  0  0  0  0
   14.4309    8.2481   11.4062 C   0  0  0  0  0  0  0  0  0  0  0  0
   13.5111    7.3056   11.6564 F   0  0  0  0  0  0  0  0  0  0  0  0
   14.9306    8.3549   10.1322 C   0  0  0  0  0  0  0  0  0  0  0  0
   15.8239    9.3796    9.8442 C   0  0  0  0  0  0  0  0  0  0  0  0
   16.3013    9.4466    8.5454 N   0  0  0  0  0  0  0  0  0  0  0  0
  1  2  3  0
  2  3  1  0
  3  4  1  0
  4  5  1  0
  5  6  1  0
  6  7  1  0
  7  8  2  0
  7  9  1  0
  9 10  1  0
 10 11  2  0
 11 12  1  0
 12 13  1  0
 12 14  2  0
 14 15  1  0
 14 16  1  0
 16 17  2  0
 17 18  1  0
 17 10  1  0
M  END
>  <HIPPO ID>  (372) 
113510

>  <ref_url>  (372) 
None

>  <ref_pdb>  (372) 
c0270a

>  <inchikey>  (372) 
YZTMDIDXCSTDKV-UHFFFAOYSA-N

>  <original SMILES>  (372) 
C#CCCOCC(=O)Nc1cc(F)c(F)cc1N

>  <generation_date>  (372) 
None

>  <tags>  (372) 
[]

>  <ref_mols>  (372) 
c0692a,c1116a

>  <alias>  (372) 
None

>  <original ID>  (372) 
YZTMDIDXCSTDKV-UHFFFAOYSA-N

>  <exports>  (372) 
['/opt/xchem-fragalysis-2/maxwin/CHIKV_HIPPO/hippo_prod/CHIKV_prod11_recipes/Recipe_1GERJCJ_poses.sdf', '/opt/xchem-fragalysis-2/maxwin/CHIKV_HIPPO/hippo_prod/CHIKV_prod11c_recipes/Recipe_1GJXW46_poses.sdf']

>  <method>  (372) 
None

>  <submitter_email>  (372) 
None

>  <submitter_name>  (372) 
None

$$$$
UYKHAIRISJEXAU-UHFFFAOYSA-N
     RDKit          3D

 18 18  0  0  0  0  0  0  0  0999 V2000
   21.3781   10.2066   10.0988 C   0  0  0  0  0  0  0  0  0  0  0  0
   21.9573   10.8555   10.9125 C   0  0  0  0  0  0  0  0  0  0  0  0
   22.3891   12.0332   11.6317 C   0  0  0  0  0  0  0  0  0  0  0  0
   21.7225   13.2104   10.9017 C   0  0  0  0  0  0  0  0  0  0  0  0
   20.3042   12.9961   10.7362 O   0  0  0  0  0  0  0  0  0  0  0  0
   19.5852   13.3611   11.9013 C   0  0  0  0  0  0  0  0  0  0  0  0
   18.1900   12.7691   11.8968 C   0  0  0  0  0  0  0  0  0  0  0  0
   17.2487   13.3862   12.3890 O   0  0  0  0  0  0  0  0  0  0  0  0
   18.1431   11.5048   11.3515 N   0  0  0  0  0  0  0  0  0  0  0  0
   16.9654   10.7889   11.0997 C   0  0  0  0  0  0  0  0  0  0  0  0
   17.0110    9.9132   10.0370 C   0  0  0  0  0  0  0  0  0  0  0  0
   15.8745    9.3343    9.5023 C   0  0  0  0  0  0  0  0  0  0  0  0
   14.6357    9.7877    9.8970 C   0  0  0  0  0  0  0  0  0  0  0  0
   13.4674    9.2060    9.1573 C   0  0  0  0  0  0  0  0  0  0  0  0
   14.6261   10.7172   10.9540 C   0  0  0  0  0  0  0  0  0  0  0  0
   13.5210   12.0570   11.0140 Cl  0  0  0  0  0  0  0  0  0  0  0  0
   15.7567   11.0252   11.7084 C   0  0  0  0  0  0  0  0  0  0  0  0
   15.6331   11.4969   13.0384 N   0  0  0  0  0  0  0  0  0  0  0  0
  1  2  3  0
  2  3  1  0
  3  4  1  0
  4  5  1  0
  5  6  1  0
  6  7  1  0
  7  8  2  0
  7  9  1  0
  9 10  1  0
 10 11  2  0
 11 12  1  0
 12 13  2  0
 13 14  1  0
 13 15  1  0
 15 16  1  0
 15 17  2  0
 17 18  1  0
 17 10  1  0
M  END
>  <HIPPO ID>  (373) 
113524

>  <ref_url>  (373) 
None

>  <ref_pdb>  (373) 
c0270a

>  <inchikey>  (373) 
UYKHAIRISJEXAU-UHFFFAOYSA-N

>  <original SMILES>  (373) 
C#CCCOCC(=O)Nc1ccc(C)c(Cl)c1N

>  <generation_date>  (373) 
None

>  <tags>  (373) 
[]

>  <ref_mols>  (373) 
c0692a,c1116a

>  <alias>  (373) 
None

>  <original ID>  (373) 
UYKHAIRISJEXAU-UHFFFAOYSA-N

>  <exports>  (373) 
['/opt/xchem-fragalysis-2/maxwin/CHIKV_HIPPO/hippo_prod/CHIKV_prod11c_recipes/Recipe_1GJXK8G_poses.sdf', '/opt/xchem-fragalysis-2/maxwin/CHIKV_HIPPO/hippo_prod/CHIKV_prod11c_recipes/Recipe_1GJXW46_poses.sdf']

>  <method>  (373) 
None

>  <submitter_email>  (373) 
None

>  <submitter_name>  (373) 
None

$$$$
NUCHCYLAYVKXHM-UHFFFAOYSA-N
     RDKit          3D

 18 18  0  0  0  0  0  0  0  0999 V2000
   24.7104   12.5781   11.5831 C   0  0  0  0  0  0  0  0  0  0  0  0
   23.5986   12.1421   11.7043 C   0  0  0  0  0  0  0  0  0  0  0  0
   22.2397   11.6082   11.8494 C   0  0  0  0  0  0  0  0  0  0  0  0
   21.4911   11.6479   10.5200 C   0  0  0  0  0  0  0  0  0  0  0  0
   20.0963   11.3506   10.6629 O   0  0  0  0  0  0  0  0  0  0  0  0
   19.3585   12.4635   11.1506 C   0  0  0  0  0  0  0  0  0  0  0  0
   17.8630   12.1907   11.2709 C   0  0  0  0  0  0  0  0  0  0  0  0
   17.1153   13.0425   11.7479 O   0  0  0  0  0  0  0  0  0  0  0  0
   17.4567   10.9820   10.7618 N   0  0  0  0  0  0  0  0  0  0  0  0
   16.3019   10.2467   11.1153 C   0  0  0  0  0  0  0  0  0  0  0  0
   15.8087    9.3512   10.1459 C   0  0  0  0  0  0  0  0  0  0  0  0
   16.3195    9.3212    8.8574 N   0  0  0  0  0  0  0  0  0  0  0  0
   14.9559    8.3109   10.5105 C   0  0  0  0  0  0  0  0  0  0  0  0
   14.5097    8.2114   11.8117 C   0  0  0  0  0  0  0  0  0  0  0  0
   14.8376    9.2072   12.7382 C   0  0  0  0  0  0  0  0  0  0  0  0
   14.2319    9.1813   14.1017 C   0  0  0  0  0  0  0  0  0  0  0  0
   15.7489   10.2186   12.4015 C   0  0  0  0  0  0  0  0  0  0  0  0
   16.2752   11.2339   13.7052 Cl  0  0  0  0  0  0  0  0  0  0  0  0
  1  2  3  0
  2  3  1  0
  3  4  1  0
  4  5  1  0
  5  6  1  0
  6  7  1  0
  7  8  2  0
  7  9  1  0
  9 10  1  0
 10 11  2  0
 11 12  1  0
 11 13  1  0
 13 14  2  0
 14 15  1  0
 15 16  1  0
 15 17  2  0
 17 18  1  0
 17 10  1  0
M  END
>  <HIPPO ID>  (374) 
113525

>  <ref_url>  (374) 
None

>  <ref_pdb>  (374) 
c0270a

>  <inchikey>  (374) 
NUCHCYLAYVKXHM-UHFFFAOYSA-N

>  <original SMILES>  (374) 
C#CCCOCC(=O)Nc1c(N)ccc(C)c1Cl

>  <generation_date>  (374) 
None

>  <tags>  (374) 
[]

>  <ref_mols>  (374) 
c0692a,c1116a

>  <alias>  (374) 
None

>  <original ID>  (374) 
NUCHCYLAYVKXHM-UHFFFAOYSA-N

>  <exports>  (374) 
['/opt/xchem-fragalysis-2/maxwin/CHIKV_HIPPO/hippo_prod/CHIKV_prod11c_recipes/Recipe_1GJXK8G_poses.sdf', '/opt/xchem-fragalysis-2/maxwin/CHIKV_HIPPO/hippo_prod/CHIKV_prod11c_recipes/Recipe_1GJXW46_poses.sdf']

>  <method>  (374) 
None

>  <submitter_email>  (374) 
None

>  <submitter_name>  (374) 
None

$$$$
VOGUVQIQLOZHAA-UHFFFAOYSA-N
     RDKit          3D

 18 18  0  0  0  0  0  0  0  0999 V2000
   21.4299   14.6732    8.6592 C   0  0  0  0  0  0  0  0  0  0  0  0
   21.7558   13.8719    9.4904 C   0  0  0  0  0  0  0  0  0  0  0  0
   22.1368   12.9481   10.5682 C   0  0  0  0  0  0  0  0  0  0  0  0
   21.4574   11.5751   10.4968 C   0  0  0  0  0  0  0  0  0  0  0  0
   20.0291   11.5650   10.3597 O   0  0  0  0  0  0  0  0  0  0  0  0
   19.3452   12.4730   11.2055 C   0  0  0  0  0  0  0  0  0  0  0  0
   17.8667   12.1308   11.3492 C   0  0  0  0  0  0  0  0  0  0  0  0
   17.1260   12.8410   12.0266 O   0  0  0  0  0  0  0  0  0  0  0  0
   17.4613   11.0240   10.6327 N   0  0  0  0  0  0  0  0  0  0  0  0
   16.3383   10.2294   10.9317 C   0  0  0  0  0  0  0  0  0  0  0  0
   15.7836    9.4051    9.9408 C   0  0  0  0  0  0  0  0  0  0  0  0
   16.1893    9.4740    8.6133 N   0  0  0  0  0  0  0  0  0  0  0  0
   14.9304    8.3589   10.2983 C   0  0  0  0  0  0  0  0  0  0  0  0
   14.5274    8.2096   11.6170 C   0  0  0  0  0  0  0  0  0  0  0  0
   14.9397    9.1494   12.5552 C   0  0  0  0  0  0  0  0  0  0  0  0
   14.2952    9.1572   14.3127 Br  0  0  0  0  0  0  0  0  0  0  0  0
   15.8549   10.1296   12.2274 C   0  0  0  0  0  0  0  0  0  0  0  0
   16.3794   10.8551   13.2246 F   0  0  0  0  0  0  0  0  0  0  0  0
  1  2  3  0
  2  3  1  0
  3  4  1  0
  4  5  1  0
  5  6  1  0
  6  7  1  0
  7  8  2  0
  7  9  1  0
  9 10  1  0
 10 11  2  0
 11 12  1  0
 11 13  1  0
 13 14  2  0
 14 15  1  0
 15 16  1  0
 15 17  2  0
 17 18  1  0
 17 10  1  0
M  END
>  <HIPPO ID>  (375) 
113531

>  <ref_url>  (375) 
None

>  <ref_pdb>  (375) 
c0270a

>  <inchikey>  (375) 
VOGUVQIQLOZHAA-UHFFFAOYSA-N

>  <original SMILES>  (375) 
C#CCCOCC(=O)Nc1c(N)ccc(Br)c1F

>  <generation_date>  (375) 
None

>  <tags>  (375) 
[]

>  <ref_mols>  (375) 
c0692a,c1116a

>  <alias>  (375) 
None

>  <original ID>  (375) 
VOGUVQIQLOZHAA-UHFFFAOYSA-N

>  <exports>  (375) 
['/opt/xchem-fragalysis-2/maxwin/CHIKV_HIPPO/hippo_prod/CHIKV_prod11c_recipes/Recipe_1GJXK8G_poses.sdf', '/opt/xchem-fragalysis-2/maxwin/CHIKV_HIPPO/hippo_prod/CHIKV_prod11c_recipes/Recipe_1GJXW46_poses.sdf']

>  <method>  (375) 
None

>  <submitter_email>  (375) 
None

>  <submitter_name>  (375) 
None

$$$$
GHGVTQDOIIWDBY-UHFFFAOYSA-N
     RDKit          3D

 18 18  0  0  0  0  0  0  0  0999 V2000
   23.0182   11.1622   13.5268 C   0  0  0  0  0  0  0  0  0  0  0  0
   22.6784   11.1249   12.3767 C   0  0  0  0  0  0  0  0  0  0  0  0
   22.3546   11.1436   10.9419 C   0  0  0  0  0  0  0  0  0  0  0  0
   21.4237   12.2941   10.6271 C   0  0  0  0  0  0  0  0  0  0  0  0
   20.0710   11.8206   10.6123 O   0  0  0  0  0  0  0  0  0  0  0  0
   19.2279   12.7040   11.3294 C   0  0  0  0  0  0  0  0  0  0  0  0
   17.7954   12.2076   11.4544 C   0  0  0  0  0  0  0  0  0  0  0  0
   16.9924   12.8132   12.1661 O   0  0  0  0  0  0  0  0  0  0  0  0
   17.5027   11.0973   10.6979 N   0  0  0  0  0  0  0  0  0  0  0  0
   16.3821   10.2563   10.8224 C   0  0  0  0  0  0  0  0  0  0  0  0
   16.0298    9.5050    9.6936 C   0  0  0  0  0  0  0  0  0  0  0  0
   15.0691    8.5028    9.7591 C   0  0  0  0  0  0  0  0  0  0  0  0
   14.5304    8.1606   10.9783 C   0  0  0  0  0  0  0  0  0  0  0  0
   13.4741    6.5933   11.0916 Br  0  0  0  0  0  0  0  0  0  0  0  0
   14.8199    8.9603   12.0795 C   0  0  0  0  0  0  0  0  0  0  0  0
   14.2187    8.7599   13.2547 F   0  0  0  0  0  0  0  0  0  0  0  0
   15.6910   10.0514   12.0215 C   0  0  0  0  0  0  0  0  0  0  0  0
   16.0285   10.6799   13.2468 N   0  0  0  0  0  0  0  0  0  0  0  0
  1  2  3  0
  2  3  1  0
  3  4  1  0
  4  5  1  0
  5  6  1  0
  6  7  1  0
  7  8  2  0
  7  9  1  0
  9 10  1  0
 10 11  2  0
 11 12  1  0
 12 13  2  0
 13 14  1  0
 13 15  1  0
 15 16  1  0
 15 17  2  0
 17 18  1  0
 17 10  1  0
M  END
>  <HIPPO ID>  (376) 
113534

>  <ref_url>  (376) 
None

>  <ref_pdb>  (376) 
c0270a

>  <inchikey>  (376) 
GHGVTQDOIIWDBY-UHFFFAOYSA-N

>  <original SMILES>  (376) 
C#CCCOCC(=O)Nc1ccc(Br)c(F)c1N

>  <generation_date>  (376) 
None

>  <tags>  (376) 
[]

>  <ref_mols>  (376) 
c0692a,c1116a

>  <alias>  (376) 
None

>  <original ID>  (376) 
GHGVTQDOIIWDBY-UHFFFAOYSA-N

>  <exports>  (376) 
['/opt/xchem-fragalysis-2/maxwin/CHIKV_HIPPO/hippo_prod/CHIKV_prod11c_recipes/Recipe_1GJXK8G_poses.sdf', '/opt/xchem-fragalysis-2/maxwin/CHIKV_HIPPO/hippo_prod/CHIKV_prod11c_recipes/Recipe_1GJXW46_poses.sdf']

>  <method>  (376) 
None

>  <submitter_email>  (376) 
None

>  <submitter_name>  (376) 
None

$$$$
NXUBANVVLANFGT-UHFFFAOYSA-N
     RDKit          3D

 19 19  0  0  0  0  0  0  0  0999 V2000
   21.9909   12.3799   12.2009 C   0  0  0  0  0  0  0  0  0  0  0  0
   21.4635   12.1780   10.7781 C   0  0  0  0  0  0  0  0  0  0  0  0
   22.1061   10.9281   10.2135 C   0  0  0  0  0  0  0  0  0  0  0  0
   21.8185   13.3800    9.8832 C   0  0  0  0  0  0  0  0  0  0  0  0
   20.0495   11.8485   10.7929 O   0  0  0  0  0  0  0  0  0  0  0  0
   19.1901   12.7805   11.2352 C   0  0  0  0  0  0  0  0  0  0  0  0
   19.4313   13.9481   11.4789 O   0  0  0  0  0  0  0  0  0  0  0  0
   17.7908   12.1859   11.4319 C   0  0  0  0  0  0  0  0  0  0  0  0
   17.0336   12.7551   12.2116 O   0  0  0  0  0  0  0  0  0  0  0  0
   17.4876   11.0845   10.6565 N   0  0  0  0  0  0  0  0  0  0  0  0
   16.3685   10.2408   10.7984 C   0  0  0  0  0  0  0  0  0  0  0  0
   16.0040    9.4927    9.6708 C   0  0  0  0  0  0  0  0  0  0  0  0
   15.0427    8.4915    9.7431 C   0  0  0  0  0  0  0  0  0  0  0  0
   14.5160    8.1453   10.9661 C   0  0  0  0  0  0  0  0  0  0  0  0
   13.4580    6.5805   11.0855 Br  0  0  0  0  0  0  0  0  0  0  0  0
   14.8148    8.9433   12.0652 C   0  0  0  0  0  0  0  0  0  0  0  0
   14.2223    8.7425   13.2446 F   0  0  0  0  0  0  0  0  0  0  0  0
   15.6838   10.0362   12.0014 C   0  0  0  0  0  0  0  0  0  0  0  0
   16.0178   10.6657   13.2247 N   0  0  0  0  0  0  0  0  0  0  0  0
  1  2  1  0
  2  3  1  0
  2  4  1  0
  2  5  1  0
  5  6  1  0
  6  7  2  0
  6  8  1  0
  8  9  2  0
  8 10  1  0
 10 11  1  0
 11 12  2  0
 12 13  1  0
 13 14  2  0
 14 15  1  0
 14 16  1  0
 16 17  1  0
 16 18  2  0
 18 19  1  0
 18 11  1  0
M  END
>  <HIPPO ID>  (377) 
113941

>  <ref_url>  (377) 
None

>  <ref_pdb>  (377) 
c0270a

>  <inchikey>  (377) 
NXUBANVVLANFGT-UHFFFAOYSA-N

>  <original SMILES>  (377) 
CC(C)(C)OC(=O)C(=O)Nc1ccc(Br)c(F)c1N

>  <generation_date>  (377) 
None

>  <tags>  (377) 
[]

>  <ref_mols>  (377) 
c0692a,c1116a

>  <alias>  (377) 
None

>  <original ID>  (377) 
NXUBANVVLANFGT-UHFFFAOYSA-N

>  <exports>  (377) 
['/opt/xchem-fragalysis-2/maxwin/CHIKV_HIPPO/hippo_prod/CHIKV_prod11c_recipes/Recipe_1GJWBFH_poses.sdf', '/opt/xchem-fragalysis-2/maxwin/CHIKV_HIPPO/hippo_prod/CHIKV_prod11c_recipes/Recipe_1GJXK8G_poses.sdf', '/opt/xchem-fragalysis-2/maxwin/CHIKV_HIPPO/hippo_prod/CHIKV_prod11c_recipes/Recipe_1GJXW46_poses.sdf']

>  <method>  (377) 
None

>  <submitter_email>  (377) 
None

>  <submitter_name>  (377) 
None

$$$$
ONEYGPZKERJOGW-UHFFFAOYSA-N
     RDKit          3D

 19 19  0  0  0  0  0  0  0  0999 V2000
   22.0157   11.7730   12.0315 C   0  0  0  0  0  0  0  0  0  0  0  0
   21.4746   12.1588   10.6652 C   0  0  0  0  0  0  0  0  0  0  0  0
   22.1473   11.2499    9.6613 C   0  0  0  0  0  0  0  0  0  0  0  0
   21.8342   13.6012   10.2834 C   0  0  0  0  0  0  0  0  0  0  0  0
   20.0492   11.8504   10.6161 O   0  0  0  0  0  0  0  0  0  0  0  0
   19.1964   12.7040   11.2110 C   0  0  0  0  0  0  0  0  0  0  0  0
   19.4534   13.8136   11.6429 O   0  0  0  0  0  0  0  0  0  0  0  0
   17.7782   12.1341   11.3366 C   0  0  0  0  0  0  0  0  0  0  0  0
   16.9717   12.7664   12.0113 O   0  0  0  0  0  0  0  0  0  0  0  0
   17.4854   10.9831   10.6237 N   0  0  0  0  0  0  0  0  0  0  0  0
   16.3687   10.1668   10.9133 C   0  0  0  0  0  0  0  0  0  0  0  0
   15.8043    9.3611    9.9164 C   0  0  0  0  0  0  0  0  0  0  0  0
   16.2086    9.4402    8.5917 N   0  0  0  0  0  0  0  0  0  0  0  0
   14.9314    8.3268   10.2643 C   0  0  0  0  0  0  0  0  0  0  0  0
   14.5184    8.1726   11.5801 C   0  0  0  0  0  0  0  0  0  0  0  0
   14.9488    9.0911   12.5293 C   0  0  0  0  0  0  0  0  0  0  0  0
   14.3008    9.1020   14.2857 Br  0  0  0  0  0  0  0  0  0  0  0  0
   15.8864   10.0522   12.2106 C   0  0  0  0  0  0  0  0  0  0  0  0
   16.4369   10.7466   13.2167 F   0  0  0  0  0  0  0  0  0  0  0  0
  1  2  1  0
  2  3  1  0
  2  4  1  0
  2  5  1  0
  5  6  1  0
  6  7  2  0
  6  8  1  0
  8  9  2  0
  8 10  1  0
 10 11  1  0
 11 12  2  0
 12 13  1  0
 12 14  1  0
 14 15  2  0
 15 16  1  0
 16 17  1  0
 16 18  2  0
 18 19  1  0
 18 11  1  0
M  END
>  <HIPPO ID>  (378) 
113942

>  <ref_url>  (378) 
None

>  <ref_pdb>  (378) 
c0270a

>  <inchikey>  (378) 
ONEYGPZKERJOGW-UHFFFAOYSA-N

>  <original SMILES>  (378) 
CC(C)(C)OC(=O)C(=O)Nc1c(N)ccc(Br)c1F

>  <generation_date>  (378) 
None

>  <tags>  (378) 
[]

>  <ref_mols>  (378) 
c0692a,c1116a

>  <alias>  (378) 
None

>  <original ID>  (378) 
ONEYGPZKERJOGW-UHFFFAOYSA-N

>  <exports>  (378) 
['/opt/xchem-fragalysis-2/maxwin/CHIKV_HIPPO/hippo_prod/CHIKV_prod11c_recipes/Recipe_1GJWBFH_poses.sdf', '/opt/xchem-fragalysis-2/maxwin/CHIKV_HIPPO/hippo_prod/CHIKV_prod11c_recipes/Recipe_1GJXK8G_poses.sdf', '/opt/xchem-fragalysis-2/maxwin/CHIKV_HIPPO/hippo_prod/CHIKV_prod11c_recipes/Recipe_1GJXW46_poses.sdf']

>  <method>  (378) 
None

>  <submitter_email>  (378) 
None

>  <submitter_name>  (378) 
None

$$$$
UICIKDYQWZSIEL-UHFFFAOYSA-N
     RDKit          3D

 19 19  0  0  0  0  0  0  0  0999 V2000
   14.2689    8.8103   13.9171 C   0  0  0  0  0  0  0  0  0  0  0  0
   14.8450    8.9763   12.5500 C   0  0  0  0  0  0  0  0  0  0  0  0
   14.4893    8.0862   11.5311 C   0  0  0  0  0  0  0  0  0  0  0  0
   14.9193    8.3150   10.2388 C   0  0  0  0  0  0  0  0  0  0  0  0
   15.7700    9.3826    9.9635 C   0  0  0  0  0  0  0  0  0  0  0  0
   16.1925    9.5143    8.6476 N   0  0  0  0  0  0  0  0  0  0  0  0
   16.2849   10.1751   11.0079 C   0  0  0  0  0  0  0  0  0  0  0  0
   17.4306   10.9680   10.7308 N   0  0  0  0  0  0  0  0  0  0  0  0
   17.7028   12.1858   11.3241 C   0  0  0  0  0  0  0  0  0  0  0  0
   16.8600   12.9280   11.8178 O   0  0  0  0  0  0  0  0  0  0  0  0
   19.1561   12.6849   11.2837 C   0  0  0  0  0  0  0  0  0  0  0  0
   19.4194   13.8363   11.5797 O   0  0  0  0  0  0  0  0  0  0  0  0
   20.0261   11.7256   10.9219 O   0  0  0  0  0  0  0  0  0  0  0  0
   21.4528   12.0171   10.9769 C   0  0  0  0  0  0  0  0  0  0  0  0
   21.9938   11.8883   12.3959 C   0  0  0  0  0  0  0  0  0  0  0  0
   22.0945   10.9285   10.1461 C   0  0  0  0  0  0  0  0  0  0  0  0
   21.8598   13.3820   10.4188 C   0  0  0  0  0  0  0  0  0  0  0  0
   15.7457   10.0198   12.2956 C   0  0  0  0  0  0  0  0  0  0  0  0
   16.2643   10.9330   13.6787 Cl  0  0  0  0  0  0  0  0  0  0  0  0
  1  2  1  0
  2  3  2  0
  3  4  1  0
  4  5  2  0
  5  6  1  0
  5  7  1  0
  7  8  1  0
  8  9  1  0
  9 10  2  0
  9 11  1  0
 11 12  2  0
 11 13  1  0
 13 14  1  0
 14 15  1  0
 14 16  1  0
 14 17  1  0
  7 18  2  0
 18 19  1  0
 18  2  1  0
M  END
>  <HIPPO ID>  (379) 
113977

>  <ref_url>  (379) 
None

>  <ref_pdb>  (379) 
c0270a

>  <inchikey>  (379) 
UICIKDYQWZSIEL-UHFFFAOYSA-N

>  <original SMILES>  (379) 
Cc1ccc(N)c(NC(=O)C(=O)OC(C)(C)C)c1Cl

>  <generation_date>  (379) 
None

>  <tags>  (379) 
[]

>  <ref_mols>  (379) 
c0692a,c1116a

>  <alias>  (379) 
None

>  <original ID>  (379) 
UICIKDYQWZSIEL-UHFFFAOYSA-N

>  <exports>  (379) 
['/opt/xchem-fragalysis-2/maxwin/CHIKV_HIPPO/hippo_prod/CHIKV_prod11c_recipes/Recipe_1GJXK8G_poses.sdf', '/opt/xchem-fragalysis-2/maxwin/CHIKV_HIPPO/hippo_prod/CHIKV_prod11c_recipes/Recipe_1GJXW46_poses.sdf']

>  <method>  (379) 
None

>  <submitter_email>  (379) 
None

>  <submitter_name>  (379) 
None

$$$$
ZKDDGRUWMJBWGC-UHFFFAOYSA-N
     RDKit          3D

 19 19  0  0  0  0  0  0  0  0999 V2000
   22.2998   11.3242   10.0841 C   0  0  0  0  0  0  0  0  0  0  0  0
   21.4740   12.3415   10.8434 C   0  0  0  0  0  0  0  0  0  0  0  0
   21.7460   13.7268   10.2370 C   0  0  0  0  0  0  0  0  0  0  0  0
   21.9184   12.3157   12.3069 C   0  0  0  0  0  0  0  0  0  0  0  0
   20.0956   11.8805   10.7558 O   0  0  0  0  0  0  0  0  0  0  0  0
   19.1431   12.7309   11.1712 C   0  0  0  0  0  0  0  0  0  0  0  0
   19.2563   13.9284   11.3597 O   0  0  0  0  0  0  0  0  0  0  0  0
   17.8366   12.0199   11.5049 C   0  0  0  0  0  0  0  0  0  0  0  0
   17.2527   12.4048   12.5130 O   0  0  0  0  0  0  0  0  0  0  0  0
   17.4114   11.0240   10.6404 N   0  0  0  0  0  0  0  0  0  0  0  0
   16.3239   10.1601   10.8961 C   0  0  0  0  0  0  0  0  0  0  0  0
   15.8084   10.0212   12.1740 C   0  0  0  0  0  0  0  0  0  0  0  0
   14.8712    9.0426   12.4413 C   0  0  0  0  0  0  0  0  0  0  0  0
   14.2707    9.0211   14.0382 Cl  0  0  0  0  0  0  0  0  0  0  0  0
   14.4439    8.1769   11.4400 C   0  0  0  0  0  0  0  0  0  0  0  0
   13.5175    7.2344   11.6681 F   0  0  0  0  0  0  0  0  0  0  0  0
   14.8946    8.3461   10.1487 C   0  0  0  0  0  0  0  0  0  0  0  0
   15.7927    9.3714    9.8630 C   0  0  0  0  0  0  0  0  0  0  0  0
   16.2484    9.4593    8.5584 N   0  0  0  0  0  0  0  0  0  0  0  0
  1  2  1  0
  2  3  1  0
  2  4  1  0
  2  5  1  0
  5  6  1  0
  6  7  2  0
  6  8  1  0
  8  9  2  0
  8 10  1  0
 10 11  1  0
 11 12  2  0
 12 13  1  0
 13 14  1  0
 13 15  2  0
 15 16  1  0
 15 17  1  0
 17 18  2  0
 18 19  1  0
 18 11  1  0
M  END
>  <HIPPO ID>  (380) 
113979

>  <ref_url>  (380) 
None

>  <ref_pdb>  (380) 
c0270a

>  <inchikey>  (380) 
ZKDDGRUWMJBWGC-UHFFFAOYSA-N

>  <original SMILES>  (380) 
CC(C)(C)OC(=O)C(=O)Nc1cc(Cl)c(F)cc1N

>  <generation_date>  (380) 
None

>  <tags>  (380) 
[]

>  <ref_mols>  (380) 
c0692a,c1116a

>  <alias>  (380) 
None

>  <original ID>  (380) 
ZKDDGRUWMJBWGC-UHFFFAOYSA-N

>  <exports>  (380) 
['/opt/xchem-fragalysis-2/maxwin/CHIKV_HIPPO/hippo_prod/CHIKV_prod11_recipes/Recipe_1GERJCJ_poses.sdf', '/opt/xchem-fragalysis-2/maxwin/CHIKV_HIPPO/hippo_prod/CHIKV_prod11c_recipes/Recipe_1GJWBFH_poses.sdf', '/opt/xchem-fragalysis-2/maxwin/CHIKV_HIPPO/hippo_prod/CHIKV_prod11c_recipes/Recipe_1GJXK8G_poses.sdf', '/opt/xchem-fragalysis-2/maxwin/CHIKV_HIPPO/hippo_prod/CHIKV_prod11c_recipes/Recipe_1GJXW46_poses.sdf']

>  <method>  (380) 
None

>  <submitter_email>  (380) 
None

>  <submitter_name>  (380) 
None

$$$$
WAIUTZGCGQYOEQ-UHFFFAOYSA-N
     RDKit          3D

 19 19  0  0  0  0  0  0  0  0999 V2000
   22.4018   11.2372   12.0011 C   0  0  0  0  0  0  0  0  0  0  0  0
   21.6257   12.2700   11.2036 C   0  0  0  0  0  0  0  0  0  0  0  0
   22.2596   12.4133    9.8272 C   0  0  0  0  0  0  0  0  0  0  0  0
   21.7483   13.5983   11.9623 C   0  0  0  0  0  0  0  0  0  0  0  0
   20.2746   11.7305   11.1382 O   0  0  0  0  0  0  0  0  0  0  0  0
   19.2592   12.5914   10.9907 C   0  0  0  0  0  0  0  0  0  0  0  0
   19.3326   13.7515   10.6364 O   0  0  0  0  0  0  0  0  0  0  0  0
   17.9316   11.9644   11.4311 C   0  0  0  0  0  0  0  0  0  0  0  0
   17.4276   12.3762   12.4690 O   0  0  0  0  0  0  0  0  0  0  0  0
   17.4110   11.0055   10.5825 N   0  0  0  0  0  0  0  0  0  0  0  0
   16.2976   10.1805   10.8494 C   0  0  0  0  0  0  0  0  0  0  0  0
   15.7199   10.0899   12.1008 C   0  0  0  0  0  0  0  0  0  0  0  0
   14.8164    9.0727   12.3525 C   0  0  0  0  0  0  0  0  0  0  0  0
   14.2289    9.0977   13.5477 F   0  0  0  0  0  0  0  0  0  0  0  0
   14.4940    8.1164   11.3917 C   0  0  0  0  0  0  0  0  0  0  0  0
   13.5055    6.7442   11.7148 Cl  0  0  0  0  0  0  0  0  0  0  0  0
   14.9541    8.2965   10.1074 C   0  0  0  0  0  0  0  0  0  0  0  0
   15.8018    9.3622    9.8211 C   0  0  0  0  0  0  0  0  0  0  0  0
   16.2696    9.4523    8.5212 N   0  0  0  0  0  0  0  0  0  0  0  0
  1  2  1  0
  2  3  1  0
  2  4  1  0
  2  5  1  0
  5  6  1  0
  6  7  2  0
  6  8  1  0
  8  9  2  0
  8 10  1  0
 10 11  1  0
 11 12  2  0
 12 13  1  0
 13 14  1  0
 13 15  2  0
 15 16  1  0
 15 17  1  0
 17 18  2  0
 18 19  1  0
 18 11  1  0
M  END
>  <HIPPO ID>  (381) 
113981

>  <ref_url>  (381) 
None

>  <ref_pdb>  (381) 
c0270a

>  <inchikey>  (381) 
WAIUTZGCGQYOEQ-UHFFFAOYSA-N

>  <original SMILES>  (381) 
CC(C)(C)OC(=O)C(=O)Nc1cc(F)c(Cl)cc1N

>  <generation_date>  (381) 
None

>  <tags>  (381) 
[]

>  <ref_mols>  (381) 
c0692a,c1116a

>  <alias>  (381) 
None

>  <original ID>  (381) 
WAIUTZGCGQYOEQ-UHFFFAOYSA-N

>  <exports>  (381) 
['/opt/xchem-fragalysis-2/maxwin/CHIKV_HIPPO/hippo_prod/CHIKV_prod11_recipes/Recipe_1GERJCJ_poses.sdf', '/opt/xchem-fragalysis-2/maxwin/CHIKV_HIPPO/hippo_prod/CHIKV_prod11c_recipes/Recipe_1GJWBFH_poses.sdf', '/opt/xchem-fragalysis-2/maxwin/CHIKV_HIPPO/hippo_prod/CHIKV_prod11c_recipes/Recipe_1GJXK8G_poses.sdf', '/opt/xchem-fragalysis-2/maxwin/CHIKV_HIPPO/hippo_prod/CHIKV_prod11c_recipes/Recipe_1GJXW46_poses.sdf']

>  <method>  (381) 
None

>  <submitter_email>  (381) 
None

>  <submitter_name>  (381) 
None

$$$$
RUFYPAXOLWWLPN-UHFFFAOYSA-N
     RDKit          3D

 19 20  0  0  0  0  0  0  0  0999 V2000
   22.3661   10.9124   12.0445 C   0  0  0  0  0  0  0  0  0  0  0  0
   21.7215   11.9637   11.1727 C   0  0  0  0  0  0  0  0  0  0  0  0
   22.0550   13.2941   11.8470 C   0  0  0  0  0  0  0  0  0  0  0  0
   22.3392   11.8533    9.7872 C   0  0  0  0  0  0  0  0  0  0  0  0
   20.3139   11.6276   11.1560 O   0  0  0  0  0  0  0  0  0  0  0  0
   19.4293   12.5976   10.8738 C   0  0  0  0  0  0  0  0  0  0  0  0
   19.7001   13.7028   10.4274 O   0  0  0  0  0  0  0  0  0  0  0  0
   17.9869   12.1845   11.1752 C   0  0  0  0  0  0  0  0  0  0  0  0
   17.3287   13.0263   11.7754 O   0  0  0  0  0  0  0  0  0  0  0  0
   17.6044   11.0181   10.5430 N   0  0  0  0  0  0  0  0  0  0  0  0
   16.4687   10.2331   10.8153 C   0  0  0  0  0  0  0  0  0  0  0  0
   16.0194    9.3919    9.7840 C   0  0  0  0  0  0  0  0  0  0  0  0
   15.0496    8.4234   10.0176 C   0  0  0  0  0  0  0  0  0  0  0  0
   14.5690    8.2469   11.3039 C   0  0  0  0  0  0  0  0  0  0  0  0
   14.9558    9.1171   12.3292 C   0  0  0  0  0  0  0  0  0  0  0  0
   15.8951   10.1404   12.0845 C   0  0  0  0  0  0  0  0  0  0  0  0
   16.2191   10.9124   13.1425 N   0  0  0  0  0  0  0  0  0  0  0  0
   15.1702   10.3737   14.3891 S   0  0  0  0  0  4  0  0  0  0  0  0
   14.4565    9.0344   13.5776 N   0  0  0  0  0  0  0  0  0  0  0  0
  1  2  1  0
  2  3  1  0
  2  4  1  0
  2  5  1  0
  5  6  1  0
  6  7  2  0
  6  8  1  0
  8  9  2  0
  8 10  1  0
 10 11  1  0
 11 12  2  0
 12 13  1  0
 13 14  2  0
 14 15  1  0
 15 16  2  0
 16 17  1  0
 17 18  2  0
 18 19  2  0
 16 11  1  0
 19 15  1  0
M  END
>  <HIPPO ID>  (382) 
114033

>  <ref_url>  (382) 
None

>  <ref_pdb>  (382) 
c0270a

>  <inchikey>  (382) 
RUFYPAXOLWWLPN-UHFFFAOYSA-N

>  <original SMILES>  (382) 
CC(C)(C)OC(=O)C(=O)Nc1cccc2c1N=S=N2

>  <generation_date>  (382) 
None

>  <tags>  (382) 
[]

>  <ref_mols>  (382) 
c0692a,c1116a

>  <alias>  (382) 
None

>  <original ID>  (382) 
RUFYPAXOLWWLPN-UHFFFAOYSA-N

>  <exports>  (382) 
['/opt/xchem-fragalysis-2/maxwin/CHIKV_HIPPO/hippo_prod/CHIKV_prod11c_recipes/Recipe_1GJXW46_poses.sdf']

>  <method>  (382) 
None

>  <submitter_email>  (382) 
None

>  <submitter_name>  (382) 
None

$$$$
MSFIXWFXWOQYNP-UHFFFAOYSA-N
     RDKit          3D

 19 19  0  0  0  0  0  0  0  0999 V2000
   21.9430   13.3493    9.8152 C   0  0  0  0  0  0  0  0  0  0  0  0
   21.5243   12.1986   10.7479 C   0  0  0  0  0  0  0  0  0  0  0  0
   22.1373   10.9123   10.2400 C   0  0  0  0  0  0  0  0  0  0  0  0
   22.0265   12.4395   12.1738 C   0  0  0  0  0  0  0  0  0  0  0  0
   20.1051   11.9061   10.7420 O   0  0  0  0  0  0  0  0  0  0  0  0
   19.2687   12.8630   11.1682 C   0  0  0  0  0  0  0  0  0  0  0  0
   19.5298   14.0297   11.3908 O   0  0  0  0  0  0  0  0  0  0  0  0
   17.8669   12.3024   11.3895 C   0  0  0  0  0  0  0  0  0  0  0  0
   17.1169   12.9161   12.1443 O   0  0  0  0  0  0  0  0  0  0  0  0
   17.5332   11.1704   10.6724 N   0  0  0  0  0  0  0  0  0  0  0  0
   16.4063   10.3680   10.9222 C   0  0  0  0  0  0  0  0  0  0  0  0
   15.8350    9.7107    9.8309 C   0  0  0  0  0  0  0  0  0  0  0  0
   14.8038    8.8118   10.0372 C   0  0  0  0  0  0  0  0  0  0  0  0
   13.7562    8.4032    8.7554 Cl  0  0  0  0  0  0  0  0  0  0  0  0
   14.4966    8.3808   11.3119 C   0  0  0  0  0  0  0  0  0  0  0  0
   15.0015    9.1004   12.3857 C   0  0  0  0  0  0  0  0  0  0  0  0
   14.3618    8.7577   14.1244 Br  0  0  0  0  0  0  0  0  0  0  0  0
   15.8859   10.1660   12.2120 C   0  0  0  0  0  0  0  0  0  0  0  0
   16.3955   10.8192   13.3603 N   0  0  0  0  0  0  0  0  0  0  0  0
  1  2  1  0
  2  3  1  0
  2  4  1  0
  2  5  1  0
  5  6  1  0
  6  7  2  0
  6  8  1  0
  8  9  2  0
  8 10  1  0
 10 11  1  0
 11 12  2  0
 12 13  1  0
 13 14  1  0
 13 15  2  0
 15 16  1  0
 16 17  1  0
 16 18  2  0
 18 19  1  0
 18 11  1  0
M  END
>  <HIPPO ID>  (383) 
114051

>  <ref_url>  (383) 
None

>  <ref_pdb>  (383) 
c0270a

>  <inchikey>  (383) 
MSFIXWFXWOQYNP-UHFFFAOYSA-N

>  <original SMILES>  (383) 
CC(C)(C)OC(=O)C(=O)Nc1cc(Cl)cc(Br)c1N

>  <generation_date>  (383) 
None

>  <tags>  (383) 
[]

>  <ref_mols>  (383) 
c0692a,c1116a

>  <alias>  (383) 
None

>  <original ID>  (383) 
MSFIXWFXWOQYNP-UHFFFAOYSA-N

>  <exports>  (383) 
['/opt/xchem-fragalysis-2/maxwin/CHIKV_HIPPO/hippo_prod/CHIKV_prod11c_recipes/Recipe_1GJXW46_poses.sdf']

>  <method>  (383) 
None

>  <submitter_email>  (383) 
None

>  <submitter_name>  (383) 
None

$$$$
MVQQQLKSXDHZNX-UHFFFAOYSA-N
     RDKit          3D

 19 19  0  0  0  0  0  0  0  0999 V2000
   21.7265   13.5412    9.7636 C   0  0  0  0  0  0  0  0  0  0  0  0
   21.4437   12.3143   10.6513 C   0  0  0  0  0  0  0  0  0  0  0  0
   21.9420   12.5801   12.0693 C   0  0  0  0  0  0  0  0  0  0  0  0
   22.1891   11.1137   10.1012 C   0  0  0  0  0  0  0  0  0  0  0  0
   20.0538   11.8800   10.6776 O   0  0  0  0  0  0  0  0  0  0  0  0
   19.1456   12.7450   11.1567 C   0  0  0  0  0  0  0  0  0  0  0  0
   19.3030   13.9353   11.3568 O   0  0  0  0  0  0  0  0  0  0  0  0
   17.8353   12.0411   11.5171 C   0  0  0  0  0  0  0  0  0  0  0  0
   17.2735   12.4134   12.5410 O   0  0  0  0  0  0  0  0  0  0  0  0
   17.3957   11.0544   10.6484 N   0  0  0  0  0  0  0  0  0  0  0  0
   16.3037   10.1923   10.8882 C   0  0  0  0  0  0  0  0  0  0  0  0
   15.7185   10.0921   12.1374 C   0  0  0  0  0  0  0  0  0  0  0  0
   14.7767    9.1136   12.3637 C   0  0  0  0  0  0  0  0  0  0  0  0
   14.1614    9.1471   13.5442 F   0  0  0  0  0  0  0  0  0  0  0  0
   14.4210    8.1989   11.3803 C   0  0  0  0  0  0  0  0  0  0  0  0
   13.4934    7.2576   11.6031 F   0  0  0  0  0  0  0  0  0  0  0  0
   14.9292    8.3378   10.1131 C   0  0  0  0  0  0  0  0  0  0  0  0
   15.8234    9.3715    9.8498 C   0  0  0  0  0  0  0  0  0  0  0  0
   16.3122    9.4493    8.5566 N   0  0  0  0  0  0  0  0  0  0  0  0
  1  2  1  0
  2  3  1  0
  2  4  1  0
  2  5  1  0
  5  6  1  0
  6  7  2  0
  6  8  1  0
  8  9  2  0
  8 10  1  0
 10 11  1  0
 11 12  2  0
 12 13  1  0
 13 14  1  0
 13 15  2  0
 15 16  1  0
 15 17  1  0
 17 18  2  0
 18 19  1  0
 18 11  1  0
M  END
>  <HIPPO ID>  (384) 
114102

>  <ref_url>  (384) 
None

>  <ref_pdb>  (384) 
c0270a

>  <inchikey>  (384) 
MVQQQLKSXDHZNX-UHFFFAOYSA-N

>  <original SMILES>  (384) 
CC(C)(C)OC(=O)C(=O)Nc1cc(F)c(F)cc1N

>  <generation_date>  (384) 
None

>  <tags>  (384) 
[]

>  <ref_mols>  (384) 
c0692a,c1116a

>  <alias>  (384) 
None

>  <original ID>  (384) 
MVQQQLKSXDHZNX-UHFFFAOYSA-N

>  <exports>  (384) 
['/opt/xchem-fragalysis-2/maxwin/CHIKV_HIPPO/hippo_prod/CHIKV_prod11_recipes/Recipe_1GERJCJ_poses.sdf', '/opt/xchem-fragalysis-2/maxwin/CHIKV_HIPPO/hippo_prod/CHIKV_prod11c_recipes/Recipe_1GJXW46_poses.sdf']

>  <method>  (384) 
None

>  <submitter_email>  (384) 
None

>  <submitter_name>  (384) 
None

$$$$
AMXQXUGTHDYRKC-GFCCVEGCSA-N
     RDKit          3D

 19 20  0  0  0  0  0  0  0  0999 V2000
   19.9436   13.3329   12.4379 C   0  0  0  0  0  0  0  0  0  0  0  0
   19.6726   12.6477   11.0841 C   0  0  2  0  0  0  0  0  0  0  0  0
   18.1447   12.2313   11.1632 C   0  0  0  0  0  0  0  0  0  0  0  0
   17.3253   12.9889   11.6988 O   0  0  0  0  0  0  0  0  0  0  0  0
   17.7350   11.0403   10.5837 N   0  0  0  0  0  0  0  0  0  0  0  0
   16.5529   10.3393   10.9643 C   0  0  0  0  0  0  0  0  0  0  0  0
   15.9461    9.4404   10.0726 C   0  0  0  0  0  0  0  0  0  0  0  0
   16.3598    9.3156    8.7611 N   0  0  0  0  0  0  0  0  0  0  0  0
   15.0432    8.4753   10.5350 C   0  0  0  0  0  0  0  0  0  0  0  0
   14.6294    8.4903   11.8507 C   0  0  0  0  0  0  0  0  0  0  0  0
   15.0639    9.5206   12.6693 C   0  0  0  0  0  0  0  0  0  0  0  0
   14.3583    9.7641   14.3794 Br  0  0  0  0  0  0  0  0  0  0  0  0
   16.0476   10.4019   12.2553 C   0  0  0  0  0  0  0  0  0  0  0  0
   16.6084   11.1857   13.1855 F   0  0  0  0  0  0  0  0  0  0  0  0
   20.6023   11.4350   10.8447 C   0  0  0  0  0  0  0  0  0  0  0  0
   22.0292   11.7770   10.8817 N   0  0  0  0  0  0  0  0  0  0  0  0
   22.3273   12.8781    9.9584 C   0  0  0  0  0  0  0  0  0  0  0  0
   21.3238   14.0450   10.0361 C   0  0  0  0  0  0  0  0  0  0  0  0
   19.9423   13.6245   10.0544 O   0  0  0  0  0  0  0  0  0  0  0  0
  2  1  1  1
  2  3  1  0
  3  4  2  0
  3  5  1  0
  5  6  1  0
  6  7  2  0
  7  8  1  0
  7  9  1  0
  9 10  2  0
 10 11  1  0
 11 12  1  0
 11 13  2  0
 13 14  1  0
  2 15  1  0
 15 16  1  0
 16 17  1  0
 17 18  1  0
 18 19  1  0
 19  2  1  0
 13  6  1  0
M  END
>  <HIPPO ID>  (385) 
114846

>  <ref_url>  (385) 
None

>  <ref_pdb>  (385) 
c0270a

>  <inchikey>  (385) 
AMXQXUGTHDYRKC-GFCCVEGCSA-N

>  <original SMILES>  (385) 
C[C@]1(C(=O)Nc2c(N)ccc(Br)c2F)CNCCO1

>  <generation_date>  (385) 
None

>  <tags>  (385) 
[]

>  <ref_mols>  (385) 
c0692a,c1116a

>  <alias>  (385) 
None

>  <original ID>  (385) 
AMXQXUGTHDYRKC-GFCCVEGCSA-N

>  <exports>  (385) 
['/opt/xchem-fragalysis-2/maxwin/CHIKV_HIPPO/hippo_prod/CHIKV_prod11c_recipes/Recipe_1GJXW46_poses.sdf']

>  <method>  (385) 
None

>  <submitter_email>  (385) 
None

>  <submitter_name>  (385) 
None

$$$$
AMXQXUGTHDYRKC-LBPRGKRZSA-N
     RDKit          3D

 19 20  0  0  0  0  0  0  0  0999 V2000
   20.0670   13.8888   10.6441 C   0  0  0  0  0  0  0  0  0  0  0  0
   19.8318   12.4979   11.2462 C   0  0  1  0  0  0  0  0  0  0  0  0
   18.2679   12.1910   11.2942 C   0  0  0  0  0  0  0  0  0  0  0  0
   17.4963   12.9760   11.8571 O   0  0  0  0  0  0  0  0  0  0  0  0
   17.7830   11.0426   10.6707 N   0  0  0  0  0  0  0  0  0  0  0  0
   16.5732   10.3690   11.0212 C   0  0  0  0  0  0  0  0  0  0  0  0
   15.9749    9.4754   10.1116 C   0  0  0  0  0  0  0  0  0  0  0  0
   16.4113    9.3445    8.8074 N   0  0  0  0  0  0  0  0  0  0  0  0
   15.0615    8.5102   10.5528 C   0  0  0  0  0  0  0  0  0  0  0  0
   14.6326    8.5140   11.8624 C   0  0  0  0  0  0  0  0  0  0  0  0
   15.0551    9.5394   12.6934 C   0  0  0  0  0  0  0  0  0  0  0  0
   14.3346    9.7556   14.4006 Br  0  0  0  0  0  0  0  0  0  0  0  0
   16.0418   10.4281   12.3009 C   0  0  0  0  0  0  0  0  0  0  0  0
   16.5778   11.2091   13.2460 F   0  0  0  0  0  0  0  0  0  0  0  0
   20.6495   11.3639   10.5977 C   0  0  0  0  0  0  0  0  0  0  0  0
   22.0465   11.7318   10.3639 N   0  0  0  0  0  0  0  0  0  0  0  0
   22.6164   12.3947   11.5413 C   0  0  0  0  0  0  0  0  0  0  0  0
   21.7163   12.3708   12.7888 C   0  0  0  0  0  0  0  0  0  0  0  0
   20.3202   12.6753   12.5950 O   0  0  0  0  0  0  0  0  0  0  0  0
  2  1  1  6
  2  3  1  0
  3  4  2  0
  3  5  1  0
  5  6  1  0
  6  7  2  0
  7  8  1  0
  7  9  1  0
  9 10  2  0
 10 11  1  0
 11 12  1  0
 11 13  2  0
 13 14  1  0
  2 15  1  0
 15 16  1  0
 16 17  1  0
 17 18  1  0
 18 19  1  0
 19  2  1  0
 13  6  1  0
M  END
>  <HIPPO ID>  (386) 
114847

>  <ref_url>  (386) 
None

>  <ref_pdb>  (386) 
c0270a

>  <inchikey>  (386) 
AMXQXUGTHDYRKC-LBPRGKRZSA-N

>  <original SMILES>  (386) 
C[C@@]1(C(=O)Nc2c(N)ccc(Br)c2F)CNCCO1

>  <generation_date>  (386) 
None

>  <tags>  (386) 
[]

>  <ref_mols>  (386) 
c0692a,c1116a

>  <alias>  (386) 
None

>  <original ID>  (386) 
AMXQXUGTHDYRKC-LBPRGKRZSA-N

>  <exports>  (386) 
['/opt/xchem-fragalysis-2/maxwin/CHIKV_HIPPO/hippo_prod/CHIKV_prod11c_recipes/Recipe_1GJXW46_poses.sdf']

>  <method>  (386) 
None

>  <submitter_email>  (386) 
None

>  <submitter_name>  (386) 
None

$$$$
GYDJDDQZRHQQMF-GFCCVEGCSA-N
     RDKit          3D

 19 20  0  0  0  0  0  0  0  0999 V2000
   19.9588   13.3596   12.4992 C   0  0  0  0  0  0  0  0  0  0  0  0
   19.6815   12.6717   11.1524 C   0  0  2  0  0  0  0  0  0  0  0  0
   18.1642   12.2155   11.2371 C   0  0  0  0  0  0  0  0  0  0  0  0
   17.3423   12.8910   11.8711 O   0  0  0  0  0  0  0  0  0  0  0  0
   17.7825   11.0809   10.5464 N   0  0  0  0  0  0  0  0  0  0  0  0
   16.5879   10.3297   10.7262 C   0  0  0  0  0  0  0  0  0  0  0  0
   16.1802    9.5309    9.6468 C   0  0  0  0  0  0  0  0  0  0  0  0
   15.1826    8.5703    9.7719 C   0  0  0  0  0  0  0  0  0  0  0  0
   14.6312    8.3290   11.0072 C   0  0  0  0  0  0  0  0  0  0  0  0
   13.5988    6.7537   11.2212 Br  0  0  0  0  0  0  0  0  0  0  0  0
   14.9295    9.2055   12.0467 C   0  0  0  0  0  0  0  0  0  0  0  0
   14.2917    9.1277   13.2181 F   0  0  0  0  0  0  0  0  0  0  0  0
   15.8706   10.2398   11.9263 C   0  0  0  0  0  0  0  0  0  0  0  0
   16.2372   10.9253   13.1129 N   0  0  0  0  0  0  0  0  0  0  0  0
   20.6396   11.4827   10.8914 C   0  0  0  0  0  0  0  0  0  0  0  0
   22.0567   11.8641   10.9069 N   0  0  0  0  0  0  0  0  0  0  0  0
   22.3064   12.9815    9.9896 C   0  0  0  0  0  0  0  0  0  0  0  0
   21.2749   14.1184   10.0946 C   0  0  0  0  0  0  0  0  0  0  0  0
   19.9083   13.6561   10.1254 O   0  0  0  0  0  0  0  0  0  0  0  0
  2  1  1  1
  2  3  1  0
  3  4  2  0
  3  5  1  0
  5  6  1  0
  6  7  2  0
  7  8  1  0
  8  9  2  0
  9 10  1  0
  9 11  1  0
 11 12  1  0
 11 13  2  0
 13 14  1  0
  2 15  1  0
 15 16  1  0
 16 17  1  0
 17 18  1  0
 18 19  1  0
 19  2  1  0
 13  6  1  0
M  END
>  <HIPPO ID>  (387) 
114848

>  <ref_url>  (387) 
None

>  <ref_pdb>  (387) 
c0270a

>  <inchikey>  (387) 
GYDJDDQZRHQQMF-GFCCVEGCSA-N

>  <original SMILES>  (387) 
C[C@]1(C(=O)Nc2ccc(Br)c(F)c2N)CNCCO1

>  <generation_date>  (387) 
None

>  <tags>  (387) 
[]

>  <ref_mols>  (387) 
c0692a,c1116a

>  <alias>  (387) 
None

>  <original ID>  (387) 
GYDJDDQZRHQQMF-GFCCVEGCSA-N

>  <exports>  (387) 
['/opt/xchem-fragalysis-2/maxwin/CHIKV_HIPPO/hippo_prod/CHIKV_prod11c_recipes/Recipe_1GJXW46_poses.sdf']

>  <method>  (387) 
None

>  <submitter_email>  (387) 
None

>  <submitter_name>  (387) 
None

$$$$
GYDJDDQZRHQQMF-LBPRGKRZSA-N
     RDKit          3D

 19 20  0  0  0  0  0  0  0  0999 V2000
   20.0867   13.8929   10.6184 C   0  0  0  0  0  0  0  0  0  0  0  0
   19.8675   12.5410   11.2945 C   0  0  1  0  0  0  0  0  0  0  0  0
   18.3070   12.2093   11.3701 C   0  0  0  0  0  0  0  0  0  0  0  0
   17.5438   12.9133   12.0420 O   0  0  0  0  0  0  0  0  0  0  0  0
   17.8343   11.1328   10.6310 N   0  0  0  0  0  0  0  0  0  0  0  0
   16.6232   10.4025   10.7962 C   0  0  0  0  0  0  0  0  0  0  0  0
   16.2428    9.5861    9.7158 C   0  0  0  0  0  0  0  0  0  0  0  0
   15.2483    8.6209    9.8223 C   0  0  0  0  0  0  0  0  0  0  0  0
   14.6647    8.3976   11.0448 C   0  0  0  0  0  0  0  0  0  0  0  0
   13.6486    6.8100   11.2535 Br  0  0  0  0  0  0  0  0  0  0  0  0
   14.9277    9.2959   12.0779 C   0  0  0  0  0  0  0  0  0  0  0  0
   14.2617    9.2269   13.2343 F   0  0  0  0  0  0  0  0  0  0  0  0
   15.8690   10.3344   11.9717 C   0  0  0  0  0  0  0  0  0  0  0  0
   16.1974   11.0329   13.1560 N   0  0  0  0  0  0  0  0  0  0  0  0
   20.6779   11.3746   10.6903 C   0  0  0  0  0  0  0  0  0  0  0  0
   22.1190   11.5633   10.5803 N   0  0  0  0  0  0  0  0  0  0  0  0
   22.6356   12.4725   11.5987 C   0  0  0  0  0  0  0  0  0  0  0  0
   21.7462   12.5225   12.8502 C   0  0  0  0  0  0  0  0  0  0  0  0
   20.3434   12.7832   12.6354 O   0  0  0  0  0  0  0  0  0  0  0  0
  2  1  1  6
  2  3  1  0
  3  4  2  0
  3  5  1  0
  5  6  1  0
  6  7  2  0
  7  8  1  0
  8  9  2  0
  9 10  1  0
  9 11  1  0
 11 12  1  0
 11 13  2  0
 13 14  1  0
  2 15  1  0
 15 16  1  0
 16 17  1  0
 17 18  1  0
 18 19  1  0
 19  2  1  0
 13  6  1  0
M  END
>  <HIPPO ID>  (388) 
114849

>  <ref_url>  (388) 
None

>  <ref_pdb>  (388) 
c0270a

>  <inchikey>  (388) 
GYDJDDQZRHQQMF-LBPRGKRZSA-N

>  <original SMILES>  (388) 
C[C@@]1(C(=O)Nc2ccc(Br)c(F)c2N)CNCCO1

>  <generation_date>  (388) 
None

>  <tags>  (388) 
[]

>  <ref_mols>  (388) 
c0692a,c1116a

>  <alias>  (388) 
None

>  <original ID>  (388) 
GYDJDDQZRHQQMF-LBPRGKRZSA-N

>  <exports>  (388) 
['/opt/xchem-fragalysis-2/maxwin/CHIKV_HIPPO/hippo_prod/CHIKV_prod11c_recipes/Recipe_1GJXW46_poses.sdf']

>  <method>  (388) 
None

>  <submitter_email>  (388) 
None

>  <submitter_name>  (388) 
None

$$$$
OWZVNZTZCUCISJ-ZDUSSCGKSA-N
     RDKit          3D

 19 20  0  0  0  0  0  0  0  0999 V2000
   14.2802    9.6302   14.0837 C   0  0  0  0  0  0  0  0  0  0  0  0
   14.9493    9.5383   12.7523 C   0  0  0  0  0  0  0  0  0  0  0  0
   14.6198    8.4971   11.8834 C   0  0  0  0  0  0  0  0  0  0  0  0
   15.0934    8.5155   10.5923 C   0  0  0  0  0  0  0  0  0  0  0  0
   15.9848    9.5118   10.1904 C   0  0  0  0  0  0  0  0  0  0  0  0
   16.4732    9.3932    8.8992 N   0  0  0  0  0  0  0  0  0  0  0  0
   16.5214   10.4315   11.1239 C   0  0  0  0  0  0  0  0  0  0  0  0
   17.7497   11.0890   10.7732 N   0  0  0  0  0  0  0  0  0  0  0  0
   18.2059   12.3130   11.2518 C   0  0  0  0  0  0  0  0  0  0  0  0
   17.4126   13.1820   11.6280 O   0  0  0  0  0  0  0  0  0  0  0  0
   19.7704   12.5924   11.2919 C   0  0  2  0  0  0  0  0  0  0  0  0
   20.1066   13.9161   10.5958 C   0  0  0  0  0  0  0  0  0  0  0  0
   20.5976   11.4094   10.7560 C   0  0  0  0  0  0  0  0  0  0  0  0
   22.0409   11.6615   10.8157 N   0  0  0  0  0  0  0  0  0  0  0  0
   22.4035   11.8865   12.2230 C   0  0  0  0  0  0  0  0  0  0  0  0
   21.5437   12.9683   12.8971 C   0  0  0  0  0  0  0  0  0  0  0  0
   20.1289   12.7896   12.6821 O   0  0  0  0  0  0  0  0  0  0  0  0
   15.9236   10.4876   12.3914 C   0  0  0  0  0  0  0  0  0  0  0  0
   16.4412   11.5427   13.6615 Cl  0  0  0  0  0  0  0  0  0  0  0  0
  1  2  1  0
  2  3  2  0
  3  4  1  0
  4  5  2  0
  5  6  1  0
  5  7  1  0
  7  8  1  0
  8  9  1  0
  9 10  2  0
  9 11  1  0
 11 12  1  6
 11 13  1  0
 13 14  1  0
 14 15  1  0
 15 16  1  0
 16 17  1  0
  7 18  2  0
 18 19  1  0
 18  2  1  0
 17 11  1  0
M  END
>  <HIPPO ID>  (389) 
114890

>  <ref_url>  (389) 
None

>  <ref_pdb>  (389) 
c0270a

>  <inchikey>  (389) 
OWZVNZTZCUCISJ-ZDUSSCGKSA-N

>  <original SMILES>  (389) 
Cc1ccc(N)c(NC(=O)[C@]2(C)CNCCO2)c1Cl

>  <generation_date>  (389) 
None

>  <tags>  (389) 
[]

>  <ref_mols>  (389) 
c0692a,c1116a

>  <alias>  (389) 
None

>  <original ID>  (389) 
OWZVNZTZCUCISJ-ZDUSSCGKSA-N

>  <exports>  (389) 
['/opt/xchem-fragalysis-2/maxwin/CHIKV_HIPPO/hippo_prod/CHIKV_prod11c_recipes/Recipe_1GJXW46_poses.sdf']

>  <method>  (389) 
None

>  <submitter_email>  (389) 
None

>  <submitter_name>  (389) 
None

$$$$
OWZVNZTZCUCISJ-CYBMUJFWSA-N
     RDKit          3D

 19 20  0  0  0  0  0  0  0  0999 V2000
   14.3332    9.3075   13.9355 C   0  0  0  0  0  0  0  0  0  0  0  0
   14.9576    9.3189   12.5781 C   0  0  0  0  0  0  0  0  0  0  0  0
   14.5991    8.3448   11.6415 C   0  0  0  0  0  0  0  0  0  0  0  0
   15.0442    8.4524   10.3416 C   0  0  0  0  0  0  0  0  0  0  0  0
   15.9177    9.4789    9.9879 C   0  0  0  0  0  0  0  0  0  0  0  0
   16.3250    9.4853    8.6561 N   0  0  0  0  0  0  0  0  0  0  0  0
   16.4667   10.3420   10.9647 C   0  0  0  0  0  0  0  0  0  0  0  0
   17.6591   11.0592   10.6184 N   0  0  0  0  0  0  0  0  0  0  0  0
   18.0630   12.2721   11.1481 C   0  0  0  0  0  0  0  0  0  0  0  0
   17.2423   13.0831   11.5912 O   0  0  0  0  0  0  0  0  0  0  0  0
   19.6014   12.6507   11.1186 C   0  0  1  0  0  0  0  0  0  0  0  0
   19.8517   13.2921   12.4954 C   0  0  0  0  0  0  0  0  0  0  0  0
   20.5141   11.4315   10.8523 C   0  0  0  0  0  0  0  0  0  0  0  0
   21.9462   11.7432   10.9238 N   0  0  0  0  0  0  0  0  0  0  0  0
   22.2772   12.8762   10.0517 C   0  0  0  0  0  0  0  0  0  0  0  0
   21.2968   14.0554   10.1654 C   0  0  0  0  0  0  0  0  0  0  0  0
   19.9115   13.6544   10.1303 O   0  0  0  0  0  0  0  0  0  0  0  0
   15.9032   10.3080   12.2512 C   0  0  0  0  0  0  0  0  0  0  0  0
   16.4130   11.3191   13.5641 Cl  0  0  0  0  0  0  0  0  0  0  0  0
  1  2  1  0
  2  3  2  0
  3  4  1  0
  4  5  2  0
  5  6  1  0
  5  7  1  0
  7  8  1  0
  8  9  1  0
  9 10  2  0
  9 11  1  0
 11 12  1  1
 11 13  1  0
 13 14  1  0
 14 15  1  0
 15 16  1  0
 16 17  1  0
  7 18  2  0
 18 19  1  0
 18  2  1  0
 17 11  1  0
M  END
>  <HIPPO ID>  (390) 
114891

>  <ref_url>  (390) 
None

>  <ref_pdb>  (390) 
c0270a

>  <inchikey>  (390) 
OWZVNZTZCUCISJ-CYBMUJFWSA-N

>  <original SMILES>  (390) 
Cc1ccc(N)c(NC(=O)[C@@]2(C)CNCCO2)c1Cl

>  <generation_date>  (390) 
None

>  <tags>  (390) 
[]

>  <ref_mols>  (390) 
c0692a,c1116a

>  <alias>  (390) 
None

>  <original ID>  (390) 
OWZVNZTZCUCISJ-CYBMUJFWSA-N

>  <exports>  (390) 
['/opt/xchem-fragalysis-2/maxwin/CHIKV_HIPPO/hippo_prod/CHIKV_prod11c_recipes/Recipe_1GJXW46_poses.sdf']

>  <method>  (390) 
None

>  <submitter_email>  (390) 
None

>  <submitter_name>  (390) 
None

$$$$
MGXPSKNOKKWTQG-GFCCVEGCSA-N
     RDKit          3D

 19 20  0  0  0  0  0  0  0  0999 V2000
   20.0116   13.2520   12.5654 C   0  0  0  0  0  0  0  0  0  0  0  0
   19.6040   12.6400   11.2047 C   0  0  2  0  0  0  0  0  0  0  0  0
   18.0821   12.1793   11.3348 C   0  0  0  0  0  0  0  0  0  0  0  0
   17.3043   12.7951   12.0724 O   0  0  0  0  0  0  0  0  0  0  0  0
   17.6370   11.1016   10.5792 N   0  0  0  0  0  0  0  0  0  0  0  0
   16.4709   10.3318   10.8456 C   0  0  0  0  0  0  0  0  0  0  0  0
   15.8502   10.3534   12.0830 C   0  0  0  0  0  0  0  0  0  0  0  0
   14.8632    9.4256   12.3596 C   0  0  0  0  0  0  0  0  0  0  0  0
   14.2062    9.5716   13.5098 F   0  0  0  0  0  0  0  0  0  0  0  0
   14.5223    8.4267   11.4530 C   0  0  0  0  0  0  0  0  0  0  0  0
   13.6110    7.4864   11.7402 F   0  0  0  0  0  0  0  0  0  0  0  0
   15.0456    8.4577   10.1884 C   0  0  0  0  0  0  0  0  0  0  0  0
   15.9692    9.4466    9.8674 C   0  0  0  0  0  0  0  0  0  0  0  0
   16.4236    9.4343    8.5583 N   0  0  0  0  0  0  0  0  0  0  0  0
   20.5133   11.4544   10.7940 C   0  0  0  0  0  0  0  0  0  0  0  0
   21.9313   11.7467   10.5873 N   0  0  0  0  0  0  0  0  0  0  0  0
   22.2371   13.1710   10.5355 C   0  0  0  0  0  0  0  0  0  0  0  0
   21.1268   14.0954   10.0001 C   0  0  0  0  0  0  0  0  0  0  0  0
   19.7651   13.6700   10.2147 O   0  0  0  0  0  0  0  0  0  0  0  0
  2  1  1  1
  2  3  1  0
  3  4  2  0
  3  5  1  0
  5  6  1  0
  6  7  2  0
  7  8  1  0
  8  9  1  0
  8 10  2  0
 10 11  1  0
 10 12  1  0
 12 13  2  0
 13 14  1  0
  2 15  1  0
 15 16  1  0
 16 17  1  0
 17 18  1  0
 18 19  1  0
 19  2  1  0
 13  6  1  0
M  END
>  <HIPPO ID>  (391) 
114916

>  <ref_url>  (391) 
None

>  <ref_pdb>  (391) 
c0270a

>  <inchikey>  (391) 
MGXPSKNOKKWTQG-GFCCVEGCSA-N

>  <original SMILES>  (391) 
C[C@]1(C(=O)Nc2cc(F)c(F)cc2N)CNCCO1

>  <generation_date>  (391) 
None

>  <tags>  (391) 
[]

>  <ref_mols>  (391) 
c0692a,c1116a

>  <alias>  (391) 
None

>  <original ID>  (391) 
MGXPSKNOKKWTQG-GFCCVEGCSA-N

>  <exports>  (391) 
['/opt/xchem-fragalysis-2/maxwin/CHIKV_HIPPO/hippo_prod/CHIKV_prod11c_recipes/Recipe_1GJXW46_poses.sdf']

>  <method>  (391) 
None

>  <submitter_email>  (391) 
None

>  <submitter_name>  (391) 
None

$$$$
MGXPSKNOKKWTQG-LBPRGKRZSA-N
     RDKit          3D

 19 20  0  0  0  0  0  0  0  0999 V2000
   19.9005   13.9080   10.7585 C   0  0  0  0  0  0  0  0  0  0  0  0
   19.7680   12.5014   11.3380 C   0  0  1  0  0  0  0  0  0  0  0  0
   18.2200   12.1244   11.4880 C   0  0  0  0  0  0  0  0  0  0  0  0
   17.5232   12.7276   12.3118 O   0  0  0  0  0  0  0  0  0  0  0  0
   17.6821   11.1162   10.6867 N   0  0  0  0  0  0  0  0  0  0  0  0
   16.4956   10.3634   10.9539 C   0  0  0  0  0  0  0  0  0  0  0  0
   15.8420   10.4303   12.1729 C   0  0  0  0  0  0  0  0  0  0  0  0
   14.8579    9.5021   12.4678 C   0  0  0  0  0  0  0  0  0  0  0  0
   14.1627    9.6950   13.5884 F   0  0  0  0  0  0  0  0  0  0  0  0
   14.5492    8.4587   11.6012 C   0  0  0  0  0  0  0  0  0  0  0  0
   13.6346    7.5250   11.8992 F   0  0  0  0  0  0  0  0  0  0  0  0
   15.0947    8.4435   10.3479 C   0  0  0  0  0  0  0  0  0  0  0  0
   16.0385    9.4103   10.0105 C   0  0  0  0  0  0  0  0  0  0  0  0
   16.3621    9.4630    8.6759 N   0  0  0  0  0  0  0  0  0  0  0  0
   20.5892   11.4057   10.6310 C   0  0  0  0  0  0  0  0  0  0  0  0
   21.9449   11.8403   10.3012 N   0  0  0  0  0  0  0  0  0  0  0  0
   22.5669   12.5473   11.4241 C   0  0  0  0  0  0  0  0  0  0  0  0
   21.7660   12.4909   12.7410 C   0  0  0  0  0  0  0  0  0  0  0  0
   20.3410   12.6951   12.6514 O   0  0  0  0  0  0  0  0  0  0  0  0
  2  1  1  6
  2  3  1  0
  3  4  2  0
  3  5  1  0
  5  6  1  0
  6  7  2  0
  7  8  1  0
  8  9  1  0
  8 10  2  0
 10 11  1  0
 10 12  1  0
 12 13  2  0
 13 14  1  0
  2 15  1  0
 15 16  1  0
 16 17  1  0
 17 18  1  0
 18 19  1  0
 19  2  1  0
 13  6  1  0
M  END
>  <HIPPO ID>  (392) 
114917

>  <ref_url>  (392) 
None

>  <ref_pdb>  (392) 
c0270a

>  <inchikey>  (392) 
MGXPSKNOKKWTQG-LBPRGKRZSA-N

>  <original SMILES>  (392) 
C[C@@]1(C(=O)Nc2cc(F)c(F)cc2N)CNCCO1

>  <generation_date>  (392) 
None

>  <tags>  (392) 
[]

>  <ref_mols>  (392) 
c0692a,c1116a

>  <alias>  (392) 
None

>  <original ID>  (392) 
MGXPSKNOKKWTQG-LBPRGKRZSA-N

>  <exports>  (392) 
['/opt/xchem-fragalysis-2/maxwin/CHIKV_HIPPO/hippo_prod/CHIKV_prod11c_recipes/Recipe_1GJXW46_poses.sdf']

>  <method>  (392) 
None

>  <submitter_email>  (392) 
None

>  <submitter_name>  (392) 
None

$$$$
DJPPGOLWZFKAKU-GFCCVEGCSA-N
     RDKit          3D

 19 21  0  0  0  0  0  0  0  0999 V2000
   20.0082   13.3509   12.4372 C   0  0  0  0  0  0  0  0  0  0  0  0
   19.7340   12.6589   11.0904 C   0  0  2  0  0  0  0  0  0  0  0  0
   18.1968   12.3060   11.1258 C   0  0  0  0  0  0  0  0  0  0  0  0
   17.4164   13.1740   11.5332 O   0  0  0  0  0  0  0  0  0  0  0  0
   17.8171   11.1139   10.5315 N   0  0  0  0  0  0  0  0  0  0  0  0
   16.6402   10.3698   10.7996 C   0  0  0  0  0  0  0  0  0  0  0  0
   16.1759    9.5129    9.7846 C   0  0  0  0  0  0  0  0  0  0  0  0
   15.1711    8.5798   10.0191 C   0  0  0  0  0  0  0  0  0  0  0  0
   14.6541    8.4587   11.2956 C   0  0  0  0  0  0  0  0  0  0  0  0
   15.0439    9.3475   12.3035 C   0  0  0  0  0  0  0  0  0  0  0  0
   16.0364   10.3239   12.0588 C   0  0  0  0  0  0  0  0  0  0  0  0
   16.3721   11.1033   13.1088 N   0  0  0  0  0  0  0  0  0  0  0  0
   15.2730   10.6355   14.3427 S   0  0  0  0  0  4  0  0  0  0  0  0
   14.5058    9.3218   13.5379 N   0  0  0  0  0  0  0  0  0  0  0  0
   20.6428   11.4269   10.8714 C   0  0  0  0  0  0  0  0  0  0  0  0
   22.0873   11.7393   10.8752 N   0  0  0  0  0  0  0  0  0  0  0  0
   22.3800   12.8057    9.9156 C   0  0  0  0  0  0  0  0  0  0  0  0
   21.4124   13.9989   10.0046 C   0  0  0  0  0  0  0  0  0  0  0  0
   20.0288   13.6220   10.0382 O   0  0  0  0  0  0  0  0  0  0  0  0
  2  1  1  1
  2  3  1  0
  3  4  2  0
  3  5  1  0
  5  6  1  0
  6  7  2  0
  7  8  1  0
  8  9  2  0
  9 10  1  0
 10 11  2  0
 11 12  1  0
 12 13  2  0
 13 14  2  0
  2 15  1  0
 15 16  1  0
 16 17  1  0
 17 18  1  0
 18 19  1  0
 19  2  1  0
 11  6  1  0
 14 10  1  0
M  END
>  <HIPPO ID>  (393) 
114918

>  <ref_url>  (393) 
None

>  <ref_pdb>  (393) 
c0270a

>  <inchikey>  (393) 
DJPPGOLWZFKAKU-GFCCVEGCSA-N

>  <original SMILES>  (393) 
C[C@]1(C(=O)Nc2cccc3c2N=S=N3)CNCCO1

>  <generation_date>  (393) 
None

>  <tags>  (393) 
[]

>  <ref_mols>  (393) 
c0692a,c1116a

>  <alias>  (393) 
None

>  <original ID>  (393) 
DJPPGOLWZFKAKU-GFCCVEGCSA-N

>  <exports>  (393) 
['/opt/xchem-fragalysis-2/maxwin/CHIKV_HIPPO/hippo_prod/CHIKV_prod11c_recipes/Recipe_1GJXW46_poses.sdf']

>  <method>  (393) 
None

>  <submitter_email>  (393) 
None

>  <submitter_name>  (393) 
None

$$$$
DJPPGOLWZFKAKU-LBPRGKRZSA-N
     RDKit          3D

 19 21  0  0  0  0  0  0  0  0999 V2000
   20.1794   13.9166   10.5505 C   0  0  0  0  0  0  0  0  0  0  0  0
   19.8238   12.6479   11.3359 C   0  0  1  0  0  0  0  0  0  0  0  0
   18.2615   12.3772   11.2677 C   0  0  0  0  0  0  0  0  0  0  0  0
   17.4982   13.2751   11.6370 O   0  0  0  0  0  0  0  0  0  0  0  0
   17.8550   11.2060   10.6358 N   0  0  0  0  0  0  0  0  0  0  0  0
   16.6684   10.4592   10.8672 C   0  0  0  0  0  0  0  0  0  0  0  0
   16.2482    9.5877    9.8431 C   0  0  0  0  0  0  0  0  0  0  0  0
   15.2435    8.6455   10.0413 C   0  0  0  0  0  0  0  0  0  0  0  0
   14.6852    8.5205   11.2983 C   0  0  0  0  0  0  0  0  0  0  0  0
   15.0344    9.4149   12.3160 C   0  0  0  0  0  0  0  0  0  0  0  0
   16.0183   10.4097   12.1010 C   0  0  0  0  0  0  0  0  0  0  0  0
   16.3013   11.1988   13.1579 N   0  0  0  0  0  0  0  0  0  0  0  0
   15.1772   10.7047   14.3602 S   0  0  0  0  0  4  0  0  0  0  0  0
   14.4643    9.3754   13.5352 N   0  0  0  0  0  0  0  0  0  0  0  0
   20.6480   11.4297   10.8647 C   0  0  0  0  0  0  0  0  0  0  0  0
   22.1078   11.5813   11.0069 N   0  0  0  0  0  0  0  0  0  0  0  0
   22.3755   11.8661   12.4236 C   0  0  0  0  0  0  0  0  0  0  0  0
   21.5746   13.0569   12.9613 C   0  0  0  0  0  0  0  0  0  0  0  0
   20.1740   12.9628   12.7004 O   0  0  0  0  0  0  0  0  0  0  0  0
  2  1  1  6
  2  3  1  0
  3  4  2  0
  3  5  1  0
  5  6  1  0
  6  7  2  0
  7  8  1  0
  8  9  2  0
  9 10  1  0
 10 11  2  0
 11 12  1  0
 12 13  2  0
 13 14  2  0
  2 15  1  0
 15 16  1  0
 16 17  1  0
 17 18  1  0
 18 19  1  0
 19  2  1  0
 11  6  1  0
 14 10  1  0
M  END
>  <HIPPO ID>  (394) 
114919

>  <ref_url>  (394) 
None

>  <ref_pdb>  (394) 
c0270a

>  <inchikey>  (394) 
DJPPGOLWZFKAKU-LBPRGKRZSA-N

>  <original SMILES>  (394) 
C[C@@]1(C(=O)Nc2cccc3c2N=S=N3)CNCCO1

>  <generation_date>  (394) 
None

>  <tags>  (394) 
[]

>  <ref_mols>  (394) 
c0692a,c1116a

>  <alias>  (394) 
None

>  <original ID>  (394) 
DJPPGOLWZFKAKU-LBPRGKRZSA-N

>  <exports>  (394) 
['/opt/xchem-fragalysis-2/maxwin/CHIKV_HIPPO/hippo_prod/CHIKV_prod11c_recipes/Recipe_1GJXW46_poses.sdf']

>  <method>  (394) 
None

>  <submitter_email>  (394) 
None

>  <submitter_name>  (394) 
None

$$$$
PJQWIOOSWXJUPE-GFCCVEGCSA-N
     RDKit          3D

 19 20  0  0  0  0  0  0  0  0999 V2000
   19.8846   13.4132   12.4516 C   0  0  0  0  0  0  0  0  0  0  0  0
   19.5763   12.6695   11.1384 C   0  0  2  0  0  0  0  0  0  0  0  0
   18.0606   12.1772   11.2996 C   0  0  0  0  0  0  0  0  0  0  0  0
   17.3006   12.7668   12.0768 O   0  0  0  0  0  0  0  0  0  0  0  0
   17.6126   11.1006   10.5475 N   0  0  0  0  0  0  0  0  0  0  0  0
   16.4503   10.3188   10.8205 C   0  0  0  0  0  0  0  0  0  0  0  0
   15.8386   10.3061   12.0624 C   0  0  0  0  0  0  0  0  0  0  0  0
   14.9058    9.3184   12.3549 C   0  0  0  0  0  0  0  0  0  0  0  0
   14.2845    9.4222   13.5295 F   0  0  0  0  0  0  0  0  0  0  0  0
   14.6044    8.2981   11.4550 C   0  0  0  0  0  0  0  0  0  0  0  0
   13.6506    6.9175   11.8455 Cl  0  0  0  0  0  0  0  0  0  0  0  0
   15.0828    8.4013   10.1725 C   0  0  0  0  0  0  0  0  0  0  0  0
   15.9457    9.4428    9.8404 C   0  0  0  0  0  0  0  0  0  0  0  0
   16.3813    9.4552    8.5262 N   0  0  0  0  0  0  0  0  0  0  0  0
   20.5209   11.4708   10.9046 C   0  0  0  0  0  0  0  0  0  0  0  0
   21.9435   11.8182   10.9273 N   0  0  0  0  0  0  0  0  0  0  0  0
   22.2234   12.9017    9.9790 C   0  0  0  0  0  0  0  0  0  0  0  0
   21.1837   14.0444    9.9768 C   0  0  0  0  0  0  0  0  0  0  0  0
   19.8100   13.6111   10.0780 O   0  0  0  0  0  0  0  0  0  0  0  0
  2  1  1  1
  2  3  1  0
  3  4  2  0
  3  5  1  0
  5  6  1  0
  6  7  2  0
  7  8  1  0
  8  9  1  0
  8 10  2  0
 10 11  1  0
 10 12  1  0
 12 13  2  0
 13 14  1  0
  2 15  1  0
 15 16  1  0
 16 17  1  0
 17 18  1  0
 18 19  1  0
 19  2  1  0
 13  6  1  0
M  END
>  <HIPPO ID>  (395) 
114922

>  <ref_url>  (395) 
None

>  <ref_pdb>  (395) 
c0270a

>  <inchikey>  (395) 
PJQWIOOSWXJUPE-GFCCVEGCSA-N

>  <original SMILES>  (395) 
C[C@]1(C(=O)Nc2cc(F)c(Cl)cc2N)CNCCO1

>  <generation_date>  (395) 
None

>  <tags>  (395) 
[]

>  <ref_mols>  (395) 
c0692a,c1116a

>  <alias>  (395) 
None

>  <original ID>  (395) 
PJQWIOOSWXJUPE-GFCCVEGCSA-N

>  <exports>  (395) 
['/opt/xchem-fragalysis-2/maxwin/CHIKV_HIPPO/hippo_prod/CHIKV_prod11c_recipes/Recipe_1GJXW46_poses.sdf']

>  <method>  (395) 
None

>  <submitter_email>  (395) 
None

>  <submitter_name>  (395) 
None

$$$$
PJQWIOOSWXJUPE-LBPRGKRZSA-N
     RDKit          3D

 19 20  0  0  0  0  0  0  0  0999 V2000
   19.9643   13.8847   10.6918 C   0  0  0  0  0  0  0  0  0  0  0  0
   19.7174   12.5445   11.3733 C   0  0  1  0  0  0  0  0  0  0  0  0
   18.1591   12.1789   11.4388 C   0  0  0  0  0  0  0  0  0  0  0  0
   17.4093   12.8024   12.1977 O   0  0  0  0  0  0  0  0  0  0  0  0
   17.6653   11.1450   10.6377 N   0  0  0  0  0  0  0  0  0  0  0  0
   16.4849   10.3750   10.8841 C   0  0  0  0  0  0  0  0  0  0  0  0
   15.8447   10.3761   12.1117 C   0  0  0  0  0  0  0  0  0  0  0  0
   14.9092    9.3867   12.3979 C   0  0  0  0  0  0  0  0  0  0  0  0
   14.2634    9.4997   13.5584 F   0  0  0  0  0  0  0  0  0  0  0  0
   14.6309    8.3518   11.5068 C   0  0  0  0  0  0  0  0  0  0  0  0
   13.6886    6.9622   11.8966 Cl  0  0  0  0  0  0  0  0  0  0  0  0
   15.1296    8.4427   10.2323 C   0  0  0  0  0  0  0  0  0  0  0  0
   16.0006    9.4800    9.9049 C   0  0  0  0  0  0  0  0  0  0  0  0
   16.4434    9.4660    8.5917 N   0  0  0  0  0  0  0  0  0  0  0  0
   20.5501   11.3968   10.7717 C   0  0  0  0  0  0  0  0  0  0  0  0
   21.9866   11.6831   10.7592 N   0  0  0  0  0  0  0  0  0  0  0  0
   22.4189   11.8805   12.1509 C   0  0  0  0  0  0  0  0  0  0  0  0
   21.5818   12.9376   12.8857 C   0  0  0  0  0  0  0  0  0  0  0  0
   20.1607   12.7451   12.7386 O   0  0  0  0  0  0  0  0  0  0  0  0
  2  1  1  6
  2  3  1  0
  3  4  2  0
  3  5  1  0
  5  6  1  0
  6  7  2  0
  7  8  1  0
  8  9  1  0
  8 10  2  0
 10 11  1  0
 10 12  1  0
 12 13  2  0
 13 14  1  0
  2 15  1  0
 15 16  1  0
 16 17  1  0
 17 18  1  0
 18 19  1  0
 19  2  1  0
 13  6  1  0
M  END
>  <HIPPO ID>  (396) 
114923

>  <ref_url>  (396) 
None

>  <ref_pdb>  (396) 
c0270a

>  <inchikey>  (396) 
PJQWIOOSWXJUPE-LBPRGKRZSA-N

>  <original SMILES>  (396) 
C[C@@]1(C(=O)Nc2cc(F)c(Cl)cc2N)CNCCO1

>  <generation_date>  (396) 
None

>  <tags>  (396) 
[]

>  <ref_mols>  (396) 
c0692a,c1116a

>  <alias>  (396) 
None

>  <original ID>  (396) 
PJQWIOOSWXJUPE-LBPRGKRZSA-N

>  <exports>  (396) 
['/opt/xchem-fragalysis-2/maxwin/CHIKV_HIPPO/hippo_prod/CHIKV_prod11c_recipes/Recipe_1GJXW46_poses.sdf']

>  <method>  (396) 
None

>  <submitter_email>  (396) 
None

>  <submitter_name>  (396) 
None

$$$$
XKJDWDJTRVQKRA-GFCCVEGCSA-N
     RDKit          3D

 19 20  0  0  0  0  0  0  0  0999 V2000
   20.0074   13.3704   12.4259 C   0  0  0  0  0  0  0  0  0  0  0  0
   19.6933   12.6535   11.0977 C   0  0  2  0  0  0  0  0  0  0  0  0
   18.1771   12.1932   11.2362 C   0  0  0  0  0  0  0  0  0  0  0  0
   17.3990   12.8391   11.9494 O   0  0  0  0  0  0  0  0  0  0  0  0
   17.7370   11.0819   10.5282 N   0  0  0  0  0  0  0  0  0  0  0  0
   16.5583   10.3417   10.8282 C   0  0  0  0  0  0  0  0  0  0  0  0
   15.9954   10.3793   12.0932 C   0  0  0  0  0  0  0  0  0  0  0  0
   15.0021    9.4739   12.4360 C   0  0  0  0  0  0  0  0  0  0  0  0
   14.3231    9.6707   13.9882 Cl  0  0  0  0  0  0  0  0  0  0  0  0
   14.5917    8.4898   11.5393 C   0  0  0  0  0  0  0  0  0  0  0  0
   13.6863    7.5536   11.8604 F   0  0  0  0  0  0  0  0  0  0  0  0
   15.0597    8.5062   10.2484 C   0  0  0  0  0  0  0  0  0  0  0  0
   15.9946    9.4674    9.8787 C   0  0  0  0  0  0  0  0  0  0  0  0
   16.3996    9.4343    8.5534 N   0  0  0  0  0  0  0  0  0  0  0  0
   20.6383   11.4533   10.8539 C   0  0  0  0  0  0  0  0  0  0  0  0
   22.0559   11.8273   10.8610 N   0  0  0  0  0  0  0  0  0  0  0  0
   22.3188   12.9227    9.9201 C   0  0  0  0  0  0  0  0  0  0  0  0
   21.2776   14.0610    9.9607 C   0  0  0  0  0  0  0  0  0  0  0  0
   19.9083   13.6092   10.0409 O   0  0  0  0  0  0  0  0  0  0  0  0
  2  1  1  1
  2  3  1  0
  3  4  2  0
  3  5  1  0
  5  6  1  0
  6  7  2  0
  7  8  1  0
  8  9  1  0
  8 10  2  0
 10 11  1  0
 10 12  1  0
 12 13  2  0
 13 14  1  0
  2 15  1  0
 15 16  1  0
 16 17  1  0
 17 18  1  0
 18 19  1  0
 19  2  1  0
 13  6  1  0
M  END
>  <HIPPO ID>  (397) 
114924

>  <ref_url>  (397) 
None

>  <ref_pdb>  (397) 
c0270a

>  <inchikey>  (397) 
XKJDWDJTRVQKRA-GFCCVEGCSA-N

>  <original SMILES>  (397) 
C[C@]1(C(=O)Nc2cc(Cl)c(F)cc2N)CNCCO1

>  <generation_date>  (397) 
None

>  <tags>  (397) 
[]

>  <ref_mols>  (397) 
c0692a,c1116a

>  <alias>  (397) 
None

>  <original ID>  (397) 
XKJDWDJTRVQKRA-GFCCVEGCSA-N

>  <exports>  (397) 
['/opt/xchem-fragalysis-2/maxwin/CHIKV_HIPPO/hippo_prod/CHIKV_prod11c_recipes/Recipe_1GJXW46_poses.sdf']

>  <method>  (397) 
None

>  <submitter_email>  (397) 
None

>  <submitter_name>  (397) 
None

$$$$
XKJDWDJTRVQKRA-LBPRGKRZSA-N
     RDKit          3D

 19 20  0  0  0  0  0  0  0  0999 V2000
   20.0615   13.8955   10.6282 C   0  0  0  0  0  0  0  0  0  0  0  0
   19.7817   12.5663   11.3257 C   0  0  1  0  0  0  0  0  0  0  0  0
   18.2249   12.2346   11.3560 C   0  0  0  0  0  0  0  0  0  0  0  0
   17.4560   12.9384   12.0209 O   0  0  0  0  0  0  0  0  0  0  0  0
   17.7490   11.1356   10.6370 N   0  0  0  0  0  0  0  0  0  0  0  0
   16.5605   10.4006   10.9335 C   0  0  0  0  0  0  0  0  0  0  0  0
   15.9679   10.4862   12.1822 C   0  0  0  0  0  0  0  0  0  0  0  0
   14.9929    9.5683   12.5492 C   0  0  0  0  0  0  0  0  0  0  0  0
   14.2749    9.8113   14.0751 Cl  0  0  0  0  0  0  0  0  0  0  0  0
   14.6203    8.5339   11.6941 C   0  0  0  0  0  0  0  0  0  0  0  0
   13.7207    7.5983   12.0328 F   0  0  0  0  0  0  0  0  0  0  0  0
   15.1097    8.5010   10.4141 C   0  0  0  0  0  0  0  0  0  0  0  0
   16.0617    9.4396   10.0253 C   0  0  0  0  0  0  0  0  0  0  0  0
   16.3456    9.4633    8.6804 N   0  0  0  0  0  0  0  0  0  0  0  0
   20.6181   11.4001   10.7666 C   0  0  0  0  0  0  0  0  0  0  0  0
   22.0576   11.6713   10.7996 N   0  0  0  0  0  0  0  0  0  0  0  0
   22.4455   11.8852   12.2016 C   0  0  0  0  0  0  0  0  0  0  0  0
   21.5938   12.9601   12.8934 C   0  0  0  0  0  0  0  0  0  0  0  0
   20.1774   12.7719   12.7063 O   0  0  0  0  0  0  0  0  0  0  0  0
  2  1  1  6
  2  3  1  0
  3  4  2  0
  3  5  1  0
  5  6  1  0
  6  7  2  0
  7  8  1  0
  8  9  1  0
  8 10  2  0
 10 11  1  0
 10 12  1  0
 12 13  2  0
 13 14  1  0
  2 15  1  0
 15 16  1  0
 16 17  1  0
 17 18  1  0
 18 19  1  0
 19  2  1  0
 13  6  1  0
M  END
>  <HIPPO ID>  (398) 
114925

>  <ref_url>  (398) 
None

>  <ref_pdb>  (398) 
c0270a

>  <inchikey>  (398) 
XKJDWDJTRVQKRA-LBPRGKRZSA-N

>  <original SMILES>  (398) 
C[C@@]1(C(=O)Nc2cc(Cl)c(F)cc2N)CNCCO1

>  <generation_date>  (398) 
None

>  <tags>  (398) 
[]

>  <ref_mols>  (398) 
c0692a,c1116a

>  <alias>  (398) 
None

>  <original ID>  (398) 
XKJDWDJTRVQKRA-LBPRGKRZSA-N

>  <exports>  (398) 
['/opt/xchem-fragalysis-2/maxwin/CHIKV_HIPPO/hippo_prod/CHIKV_prod11c_recipes/Recipe_1GJXW46_poses.sdf']

>  <method>  (398) 
None

>  <submitter_email>  (398) 
None

>  <submitter_name>  (398) 
None

$$$$
SAJHUPLXPLTGGW-UHFFFAOYSA-N
     RDKit          3D

 19 19  0  0  0  0  0  0  0  0999 V2000
   21.9768   13.6582   10.6849 C   0  0  0  0  0  0  0  0  0  0  0  0
   21.6452   12.1674   10.6572 C   0  0  0  0  0  0  0  0  0  0  0  0
   22.4130   11.5767    9.4904 C   0  0  0  0  0  0  0  0  0  0  0  0
   22.1287   11.4308   11.8960 C   0  0  0  0  0  0  0  0  0  0  0  0
   20.2340   11.9065   10.4646 O   0  0  0  0  0  0  0  0  0  0  0  0
   19.3787   12.7049   11.2693 C   0  0  0  0  0  0  0  0  0  0  0  0
   17.9203   12.2678   11.3045 C   0  0  0  0  0  0  0  0  0  0  0  0
   17.0675   12.9771   11.8343 O   0  0  0  0  0  0  0  0  0  0  0  0
   17.6469   11.0770   10.6782 N   0  0  0  0  0  0  0  0  0  0  0  0
   16.4715   10.3166   10.8228 C   0  0  0  0  0  0  0  0  0  0  0  0
   16.1480    9.4595    9.7603 C   0  0  0  0  0  0  0  0  0  0  0  0
   15.1439    8.4979    9.8722 C   0  0  0  0  0  0  0  0  0  0  0  0
   14.5149    8.3090   11.0829 C   0  0  0  0  0  0  0  0  0  0  0  0
   14.7763    9.2050   12.1074 C   0  0  0  0  0  0  0  0  0  0  0  0
   14.1397    9.0803   13.2710 F   0  0  0  0  0  0  0  0  0  0  0  0
   15.6803   10.2380   11.9639 C   0  0  0  0  0  0  0  0  0  0  0  0
   15.8005   11.0532   13.1399 N   0  0  0  0  0  4  0  0  0  0  0  0
   14.8015   11.6941   13.4929 O   0  0  0  0  0  0  0  0  0  0  0  0
   16.8607   10.9794   13.7720 O   0  0  0  0  0  1  0  0  0  0  0  0
  1  2  1  0
  2  3  1  0
  2  4  1  0
  2  5  1  0
  5  6  1  0
  6  7  1  0
  7  8  2  0
  7  9  1  0
  9 10  1  0
 10 11  2  0
 11 12  1  0
 12 13  2  0
 13 14  1  0
 14 15  1  0
 14 16  2  0
 16 17  1  0
 17 18  2  0
 17 19  1  0
 16 10  1  0
M  CHG  2  17   1  19  -1
M  END
>  <HIPPO ID>  (399) 
114949

>  <ref_url>  (399) 
None

>  <ref_pdb>  (399) 
c0270a

>  <inchikey>  (399) 
SAJHUPLXPLTGGW-UHFFFAOYSA-N

>  <original SMILES>  (399) 
CC(C)(C)OCC(=O)Nc1cccc(F)c1[N+](=O)[O-]

>  <generation_date>  (399) 
None

>  <tags>  (399) 
[]

>  <ref_mols>  (399) 
c0692a,c1116a

>  <alias>  (399) 
None

>  <original ID>  (399) 
SAJHUPLXPLTGGW-UHFFFAOYSA-N

>  <exports>  (399) 
['/opt/xchem-fragalysis-2/maxwin/CHIKV_HIPPO/hippo_prod/CHIKV_prod11c_recipes/Recipe_1GJXK8G_poses.sdf', '/opt/xchem-fragalysis-2/maxwin/CHIKV_HIPPO/hippo_prod/CHIKV_prod11c_recipes/Recipe_1GJXW46_poses.sdf']

>  <method>  (399) 
None

>  <submitter_email>  (399) 
None

>  <submitter_name>  (399) 
None

$$$$
UHMSCEHNRIERSB-UHFFFAOYSA-N
     RDKit          3D

 19 19  0  0  0  0  0  0  0  0999 V2000
   24.4670   12.5597    8.3959 C   0  0  0  0  0  0  0  0  0  0  0  0
   23.5073   12.6824    9.1052 C   0  0  0  0  0  0  0  0  0  0  0  0
   22.3412   12.8527    9.9691 C   0  0  0  0  0  0  0  0  0  0  0  0
   21.7684   11.5218   10.4535 C   0  0  0  0  0  0  0  0  0  0  0  0
   20.3383   11.4807   10.4364 O   0  0  0  0  0  0  0  0  0  0  0  0
   19.7329   12.4611   11.2739 C   0  0  0  0  0  0  0  0  0  0  0  0
   18.2507   12.1506   11.3797 C   0  0  0  0  0  0  0  0  0  0  0  0
   17.4476   12.9718   11.8161 O   0  0  0  0  0  0  0  0  0  0  0  0
   17.9295   10.8853   10.9065 N   0  0  0  0  0  0  0  0  0  0  0  0
   16.6047   10.4482   10.7645 C   0  0  0  0  0  0  0  0  0  0  0  0
   16.3255    9.6469    9.6572 C   0  0  0  0  0  0  0  0  0  0  0  0
   15.0415    9.4678    9.1961 C   0  0  0  0  0  0  0  0  0  0  0  0
   14.0801   10.2814    9.7249 C   0  0  0  0  0  0  0  0  0  0  0  0
   14.3382   11.0273   10.8796 C   0  0  0  0  0  0  0  0  0  0  0  0
   13.3911   11.8451   11.3418 F   0  0  0  0  0  0  0  0  0  0  0  0
   15.5499   10.9417   11.5076 C   0  0  0  0  0  0  0  0  0  0  0  0
   15.6454   11.1830   12.9408 N   0  0  0  0  0  4  0  0  0  0  0  0
   14.6802   11.6841   13.5308 O   0  0  0  0  0  0  0  0  0  0  0  0
   16.6535   10.7588   13.5285 O   0  0  0  0  0  1  0  0  0  0  0  0
  1  2  3  0
  2  3  1  0
  3  4  1  0
  4  5  1  0
  5  6  1  0
  6  7  1  0
  7  8  2  0
  7  9  1  0
  9 10  1  0
 10 11  2  0
 11 12  1  0
 12 13  2  0
 13 14  1  0
 14 15  1  0
 14 16  2  0
 16 17  1  0
 17 18  2  0
 17 19  1  0
 16 10  1  0
M  CHG  2  17   1  19  -1
M  END
>  <HIPPO ID>  (400) 
114959

>  <ref_url>  (400) 
None

>  <ref_pdb>  (400) 
c0270a

>  <inchikey>  (400) 
UHMSCEHNRIERSB-UHFFFAOYSA-N

>  <original SMILES>  (400) 
C#CCCOCC(=O)Nc1cccc(F)c1[N+](=O)[O-]

>  <generation_date>  (400) 
None

>  <tags>  (400) 
[]

>  <ref_mols>  (400) 
c0692a,c1116a

>  <alias>  (400) 
None

>  <original ID>  (400) 
UHMSCEHNRIERSB-UHFFFAOYSA-N

>  <exports>  (400) 
['/opt/xchem-fragalysis-2/maxwin/CHIKV_HIPPO/hippo_prod/CHIKV_prod11c_recipes/Recipe_1GJXK8G_poses.sdf', '/opt/xchem-fragalysis-2/maxwin/CHIKV_HIPPO/hippo_prod/CHIKV_prod11c_recipes/Recipe_1GJXW46_poses.sdf']

>  <method>  (400) 
None

>  <submitter_email>  (400) 
None

>  <submitter_name>  (400) 
None

$$$$
PXIQYHIFEOKDLP-UHFFFAOYSA-N
     RDKit          3D

 19 19  0  0  0  0  0  0  0  0999 V2000
   17.2515   12.8631   11.9794 O   0  0  0  0  0  0  0  0  0  0  0  0
   17.9755   12.1453   11.3005 C   0  0  0  0  0  0  0  0  0  0  0  0
   19.4456   12.4785   11.1234 C   0  0  0  0  0  0  0  0  0  0  0  0
   20.1410   11.3979   10.5103 O   0  0  0  0  0  0  0  0  0  0  0  0
   21.5377   11.6727   10.3948 C   0  0  0  0  0  0  0  0  0  0  0  0
   22.2578   11.3597   11.6954 C   0  0  0  0  0  0  0  0  0  0  0  0
   23.6664   11.9081   11.6957 C   0  0  0  0  0  0  0  0  0  0  0  0
   23.6637   13.7977   12.1120 Br  0  0  0  0  0  0  0  0  0  0  0  0
   17.5604   11.0364   10.6033 N   0  0  0  0  0  0  0  0  0  0  0  0
   16.3937   10.2799   10.7851 C   0  0  0  0  0  0  0  0  0  0  0  0
   16.0474    9.4232    9.7281 C   0  0  0  0  0  0  0  0  0  0  0  0
   15.0652    8.4429    9.8712 C   0  0  0  0  0  0  0  0  0  0  0  0
   14.4764    8.2420   11.1010 C   0  0  0  0  0  0  0  0  0  0  0  0
   14.7538    9.1427   12.1164 C   0  0  0  0  0  0  0  0  0  0  0  0
   14.1290    9.0390   13.2886 F   0  0  0  0  0  0  0  0  0  0  0  0
   15.6433   10.1819   11.9457 C   0  0  0  0  0  0  0  0  0  0  0  0
   15.7706   10.9992   13.1099 N   0  0  0  0  0  4  0  0  0  0  0  0
   15.0049   11.9629   13.2084 O   0  0  0  0  0  0  0  0  0  0  0  0
   16.5560   10.6054   13.9811 O   0  0  0  0  0  1  0  0  0  0  0  0
  1  2  2  0
  2  3  1  0
  3  4  1  0
  4  5  1  0
  5  6  1  0
  6  7  1  0
  7  8  1  0
  2  9  1  0
  9 10  1  0
 10 11  2  0
 11 12  1  0
 12 13  2  0
 13 14  1  0
 14 15  1  0
 14 16  2  0
 16 17  1  0
 17 18  2  0
 17 19  1  0
 16 10  1  0
M  CHG  2  17   1  19  -1
M  END
>  <HIPPO ID>  (401) 
114961

>  <ref_url>  (401) 
None

>  <ref_pdb>  (401) 
c0270a

>  <inchikey>  (401) 
PXIQYHIFEOKDLP-UHFFFAOYSA-N

>  <original SMILES>  (401) 
O=C(COCCCBr)Nc1cccc(F)c1[N+](=O)[O-]

>  <generation_date>  (401) 
None

>  <tags>  (401) 
[]

>  <ref_mols>  (401) 
c0692a,c1116a

>  <alias>  (401) 
None

>  <original ID>  (401) 
PXIQYHIFEOKDLP-UHFFFAOYSA-N

>  <exports>  (401) 
['/opt/xchem-fragalysis-2/maxwin/CHIKV_HIPPO/hippo_prod/CHIKV_prod11c_recipes/Recipe_1GJWBFH_poses.sdf', '/opt/xchem-fragalysis-2/maxwin/CHIKV_HIPPO/hippo_prod/CHIKV_prod11c_recipes/Recipe_1GJXK8G_poses.sdf', '/opt/xchem-fragalysis-2/maxwin/CHIKV_HIPPO/hippo_prod/CHIKV_prod11c_recipes/Recipe_1GJXW46_poses.sdf']

>  <method>  (401) 
None

>  <submitter_email>  (401) 
None

>  <submitter_name>  (401) 
None

$$$$
KHEHEMIZYLXTKT-UHFFFAOYSA-N
     RDKit          3D

 21 22  0  0  0  0  0  0  0  0999 V2000
   20.5656    2.1324   17.6312 C   0  0  0  0  0  0  0  0  0  0  0  0
   19.0447    2.1251   17.6753 C   0  0  0  0  0  0  0  0  0  0  0  0
   18.4708    2.1338   16.2588 C   0  0  0  0  0  0  0  0  0  0  0  0
   17.0649    1.7744   16.1279 N   0  0  0  0  0  0  0  0  0  0  0  0
   16.4229    0.8580   16.9331 C   0  0  0  0  0  0  0  0  0  0  0  0
   15.3900    1.1875   17.5154 O   0  0  0  0  0  0  0  0  0  0  0  0
   17.0379   -0.4362   17.2133 C   0  0  0  0  0  0  0  0  0  0  0  0
   16.4677   -1.4528   18.0232 C   0  0  0  0  0  0  0  0  0  0  0  0
   17.2761   -2.5072   18.1776 N   0  0  0  0  0  0  0  0  0  0  0  0
   18.3519   -2.1856   17.4573 N   0  0  0  0  0  0  0  0  0  0  0  0
   18.2419   -0.9878   16.8153 C   0  0  0  0  0  0  0  0  0  0  0  0
   16.3088    2.0768   15.0378 C   0  0  0  0  0  0  0  0  0  0  0  0
   15.4448    1.3327   14.5832 O   0  0  0  0  0  0  0  0  0  0  0  0
   16.4641    3.3116   14.2618 C   0  0  0  0  0  0  0  0  0  0  0  0
   15.3205    3.9988   14.1028 C   0  0  0  0  0  0  0  0  0  0  0  0
   15.2160    4.9809   13.0576 C   0  0  0  0  0  0  0  0  0  0  0  0
   16.2305    5.1790   12.2072 C   0  0  0  0  0  0  0  0  0  0  0  0
   17.4933    4.4129   12.3788 C   0  0  0  0  0  0  0  0  0  0  0  0
   18.4185    4.5651   11.5823 O   0  0  0  0  0  0  0  0  0  0  0  0
   17.5240    3.5528   13.4422 N   0  0  0  0  0  0  0  0  0  0  0  0
   18.5938    2.6545   13.5163 O   0  0  0  0  0  0  0  0  0  0  0  0
  1  2  1  0
  2  3  1  0
  3  4  1  0
  4  5  1  0
  5  6  2  0
  5  7  1  0
  7  8  1  0
  8  9  2  0
  9 10  1  0
 10 11  1  0
  4 12  1  0
 12 13  2  0
 12 14  1  0
 14 15  2  0
 15 16  1  0
 16 17  2  0
 17 18  1  0
 18 19  2  0
 18 20  1  0
 20 21  1  0
 11  7  2  0
 20 14  1  0
M  END
>  <HIPPO ID>  (402) 
115770

>  <ref_url>  (402) 
None

>  <ref_pdb>  (402) 
c0300a

>  <inchikey>  (402) 
KHEHEMIZYLXTKT-UHFFFAOYSA-N

>  <original SMILES>  (402) 
CCCN(C(=O)c1cn[nH]c1)C(=O)c1cccc(=O)n1O

>  <generation_date>  (402) 
None

>  <tags>  (402) 
[]

>  <ref_mols>  (402) 
c0732a,c1135a

>  <alias>  (402) 
None

>  <original ID>  (402) 
KHEHEMIZYLXTKT-UHFFFAOYSA-N

>  <exports>  (402) 
['/opt/xchem-fragalysis-2/maxwin/CHIKV_HIPPO/hippo_prod/CHIKV_prod11c_recipes/Recipe_1GJXK8G_poses.sdf', '/opt/xchem-fragalysis-2/maxwin/CHIKV_HIPPO/hippo_prod/CHIKV_prod11c_recipes/Recipe_1GJXW46_poses.sdf']

>  <method>  (402) 
None

>  <submitter_email>  (402) 
None

>  <submitter_name>  (402) 
None

$$$$
