ver_1.2
     RDKit          3D

 16 17  0  0  0  0  0  0  0  0999 V2000
   -4.3930    0.4499    0.4029 C   0  0  0  0  0  0  0  0  0  0  0  0
   -4.1933    0.0204   -1.0163 C   0  0  0  0  0  0  0  0  0  0  0  0
   -2.9043   -0.6926   -1.0717 C   0  0  0  0  0  0  0  0  0  0  0  0
   -1.8556    0.1411   -1.3372 N   0  0  0  0  0  0  0  0  0  0  0  0
   -0.7059   -0.5936   -1.3712 C   0  0  0  0  0  0  0  0  0  0  0  0
    0.6901   -0.1430   -1.6218 C   0  0  0  0  0  0  0  0  0  0  0  0
    1.3577    0.2259   -0.3671 N   0  0  0  0  0  0  0  0  0  0  0  0
    1.1683    1.5469   -0.0844 C   0  0  0  0  0  0  0  0  0  0  0  0
    1.7383    2.0727    1.0815 C   0  0  0  0  0  0  0  0  0  0  0  0
    2.4751    1.2526    1.9166 C   0  0  0  0  0  0  0  0  0  0  0  0
    3.2955    1.8649    3.5299 Br  0  0  0  0  0  0  0  0  0  0  0  0
    2.6341   -0.0869    1.5760 C   0  0  0  0  0  0  0  0  0  0  0  0
    2.0730   -0.5792    0.4397 C   0  0  0  0  0  0  0  0  0  0  0  0
    2.1186   -1.7337   -0.0031 O   0  0  0  0  0  0  0  0  0  0  0  0
   -1.1050   -1.8556   -1.1228 N   0  0  0  0  0  0  0  0  0  0  0  0
   -2.3935   -1.8900   -0.9510 O   0  0  0  0  0  0  0  0  0  0  0  0
  1  2  1  0
  2  3  1  0
  3  4  2  0
  4  5  1  0
  5  6  1  0
  6  7  1  0
  7  8  1  0
  8  9  2  0
  9 10  1  0
 10 11  1  0
 10 12  2  0
 12 13  1  0
 13 14  2  0
  5 15  2  0
 15 16  1  0
 16  3  1  0
 13  7  1  0
M  END
>  <ref_url>  (1) 
https://hippo.winokan.com

>  <submitter_name>  (1) 
Max Winokan

>  <submitter_email>  (1) 
max.winokan@diamond.ac.uk

>  <submitter_institution>  (1) 
DLS

>  <generation_date>  (1) 
2024-10-03

>  <method>  (1) 
HIPPO 1G8PPKY

>  <smiles>  (1) 
smiles

>  <ref_mols>  (1) 
fragment inspirations

>  <original ID>  (1) 
original ID

$$$$
QQERROZMPKKQER-UHFFFAOYSA-N
     RDKit          3D

 16 17  0  0  0  0  0  0  0  0999 V2000
   13.9020    8.9383    9.0983 C   0  0  0  0  0  0  0  0  0  0  0  0
   14.6703    8.3405   10.2557 C   0  0  0  0  0  0  0  0  0  0  0  0
   14.4865    6.8874   10.4794 C   0  0  0  0  0  0  0  0  0  0  0  0
   15.2881    6.0778   11.1361 N   0  0  0  0  0  0  0  0  0  0  0  0
   14.7503    4.8440   10.8572 C   0  0  0  0  0  0  0  0  0  0  0  0
   15.4574    3.5660   11.1690 C   0  0  0  0  0  0  0  0  0  0  0  0
   16.1233    3.5930   12.4794 N   0  0  0  0  0  0  0  0  0  0  0  0
   15.5405    2.9290   13.5427 C   0  0  0  0  0  0  0  0  0  0  0  0
   16.1190    2.8649   14.7442 C   0  0  0  0  0  0  0  0  0  0  0  0
   17.3720    3.5306   14.9626 C   0  0  0  0  0  0  0  0  0  0  0  0
   18.1084    3.4454   16.6687 Br  0  0  0  0  0  0  0  0  0  0  0  0
   17.9714    4.1819   13.9599 C   0  0  0  0  0  0  0  0  0  0  0  0
   17.3781    4.1783   12.5981 C   0  0  0  0  0  0  0  0  0  0  0  0
   18.0274    4.6782   11.6786 O   0  0  0  0  0  0  0  0  0  0  0  0
   13.6192    4.8813   10.1346 N   0  0  0  0  0  0  0  0  0  0  0  0
   13.4358    6.2469    9.8918 O   0  0  0  0  0  0  0  0  0  0  0  0
  1  2  1  0
  2  3  1  0
  3  4  2  0
  4  5  1  0
  5  6  1  0
  6  7  1  0
  7  8  1  0
  8  9  2  0
  9 10  1  0
 10 11  1  0
 10 12  2  0
 12 13  1  0
 13 14  2  0
  5 15  2  0
 15 16  1  0
 16  3  1  0
 13  7  1  0
M  END
>  <original ID>  (1) 
QQERROZMPKKQER-UHFFFAOYSA-N

>  <generation_date>  (1) 
None

>  <alias>  (1) 
None

>  <original SMILES>  (1) 
CCc1nc(Cn2ccc(Br)cc2=O)no1

>  <HIPPO ID>  (1) 
6251

>  <tags>  (1) 
['Syndirella base']

>  <ref_pdb>  (1) 
c0300a

>  <method>  (1) 
None

>  <ref_url>  (1) 
None

>  <inchikey>  (1) 
QQERROZMPKKQER-UHFFFAOYSA-N

>  <submitter_email>  (1) 
None

>  <ref_mols>  (1) 
c0316a,c1091a

>  <submitter_name>  (1) 
None

$$$$
MMXSHBZOILNLPJ-UHFFFAOYSA-N
     RDKit          3D

 14 15  0  0  0  0  0  0  0  0999 V2000
   13.4627   13.2134   13.8958 C   0  0  0  0  0  0  0  0  0  0  0  0
   14.3058   13.0535   12.6365 C   0  0  0  0  0  0  0  0  0  0  0  0
   15.2394   14.2519   12.7030 C   0  0  0  0  0  0  0  0  0  0  0  0
   13.5096   13.1566   11.3159 C   0  0  0  0  0  0  0  0  0  0  0  0
   14.8463   11.6333   12.6262 C   0  0  0  0  0  0  0  0  0  0  0  0
   15.1265   10.9216   13.7809 C   0  0  0  0  0  0  0  0  0  0  0  0
   15.1493    9.5760   13.8151 N   0  0  0  0  0  0  0  0  0  0  0  0
   14.9543    8.9451   12.6464 C   0  0  0  0  0  0  0  0  0  0  0  0
   14.8571    7.5637   12.6234 C   0  0  0  0  0  0  0  0  0  0  0  0
   14.6444    6.8849   11.4266 C   0  0  0  0  0  0  0  0  0  0  0  0
   14.5565    7.5960   10.2357 C   0  0  0  0  0  0  0  0  0  0  0  0
   14.7094    8.9777   10.2306 C   0  0  0  0  0  0  0  0  0  0  0  0
   14.8668    9.6613   11.4274 C   0  0  0  0  0  0  0  0  0  0  0  0
   14.8664   10.9978   11.4272 N   0  0  0  0  0  0  0  0  0  0  0  0
  1  2  1  0
  2  3  1  0
  2  4  1  0
  2  5  1  0
  5  6  2  0
  6  7  1  0
  7  8  2  0
  8  9  1  0
  9 10  2  0
 10 11  1  0
 11 12  2  0
 12 13  1  0
 13 14  2  0
 14  5  1  0
 13  8  1  0
M  END
>  <original ID>  (2) 
MMXSHBZOILNLPJ-UHFFFAOYSA-N

>  <generation_date>  (2) 
None

>  <alias>  (2) 
None

>  <original SMILES>  (2) 
CC(C)(C)c1cnc2ccccc2n1

>  <HIPPO ID>  (2) 
6276

>  <tags>  (2) 
['Syndirella base']

>  <ref_pdb>  (2) 
c0300a

>  <method>  (2) 
None

>  <ref_url>  (2) 
None

>  <inchikey>  (2) 
MMXSHBZOILNLPJ-UHFFFAOYSA-N

>  <submitter_email>  (2) 
None

>  <ref_mols>  (2) 
c0839a,c1299a

>  <submitter_name>  (2) 
None

$$$$
DGASNXVGKHJXGC-UHFFFAOYSA-N
     RDKit          3D

 18 20  0  0  0  0  0  0  0  0999 V2000
   14.7841    9.7548    9.7323 C   0  0  0  0  0  0  0  0  0  0  0  0
   14.6592   10.3981   11.0202 N   0  0  0  0  0  0  0  0  0  0  0  0
   14.5044   11.7444   11.2343 C   0  0  0  0  0  0  0  0  0  0  0  0
   14.0753   12.6131   10.3082 N   0  0  0  0  0  0  0  0  0  0  0  0
   14.7656   12.0878   12.4576 N   0  0  0  0  0  0  0  0  0  0  0  0
   14.9443   10.9101   13.1132 C   0  0  0  0  0  0  0  0  0  0  0  0
   15.2667   10.7414   14.4568 C   0  0  0  0  0  0  0  0  0  0  0  0
   15.5118    9.4498   14.8943 C   0  0  0  0  0  0  0  0  0  0  0  0
   15.3512    8.3589   14.0533 C   0  0  0  0  0  0  0  0  0  0  0  0
   14.9109    8.4799   12.7306 C   0  0  0  0  0  0  0  0  0  0  0  0
   14.6766    7.3573   11.9523 N   0  0  0  0  0  0  0  0  0  0  0  0
   14.2493    6.1058   12.5867 C   0  0  0  0  0  0  0  0  0  0  0  0
   12.7939    6.0142   12.9477 C   0  0  0  0  0  0  0  0  0  0  0  0
   11.8175    5.3080   12.2752 C   0  0  0  0  0  0  0  0  0  0  0  0
   10.5408    5.4154   12.8926 C   0  0  0  0  0  0  0  0  0  0  0  0
   10.5781    6.2007   14.0212 C   0  0  0  0  0  0  0  0  0  0  0  0
   12.1548    6.7775   14.3449 S   0  0  0  0  0  0  0  0  0  0  0  0
   14.8138    9.8077   12.2624 C   0  0  0  0  0  0  0  0  0  0  0  0
  1  2  1  0
  2  3  1  0
  3  4  1  0
  3  5  2  0
  5  6  1  0
  6  7  2  0
  7  8  1  0
  8  9  2  0
  9 10  1  0
 10 11  1  0
 11 12  1  0
 12 13  1  0
 13 14  2  0
 14 15  1  0
 15 16  2  0
 16 17  1  0
 10 18  2  0
 18  2  1  0
 18  6  1  0
 17 13  1  0
M  END
>  <original ID>  (3) 
DGASNXVGKHJXGC-UHFFFAOYSA-N

>  <generation_date>  (3) 
None

>  <alias>  (3) 
None

>  <original SMILES>  (3) 
Cn1c(N)nc2cccc(NCc3cccs3)c21

>  <HIPPO ID>  (3) 
6278

>  <tags>  (3) 
['Syndirella base']

>  <ref_pdb>  (3) 
c1454a

>  <method>  (3) 
None

>  <ref_url>  (3) 
None

>  <inchikey>  (3) 
DGASNXVGKHJXGC-UHFFFAOYSA-N

>  <submitter_email>  (3) 
None

>  <ref_mols>  (3) 
c0892a,c1203a

>  <submitter_name>  (3) 
None

$$$$
WXVLITNXXROEMR-UHFFFAOYSA-N
     RDKit          3D

 22 24  0  0  0  0  0  0  0  0999 V2000
   13.7778    8.8513    8.9663 C   0  0  0  0  0  0  0  0  0  0  0  0
   14.6194    8.2823   10.0818 C   0  0  0  0  0  0  0  0  0  0  0  0
   14.4339    6.8461   10.3992 C   0  0  0  0  0  0  0  0  0  0  0  0
   15.2393    6.1041   11.1185 N   0  0  0  0  0  0  0  0  0  0  0  0
   14.6572    4.8692   11.0724 C   0  0  0  0  0  0  0  0  0  0  0  0
   15.1902    3.8184   11.7929 N   0  0  0  0  0  0  0  0  0  0  0  0
   16.4342    3.9629   12.3719 C   0  0  0  0  0  0  0  0  0  0  0  0
   17.3439    4.6301   11.8784 O   0  0  0  0  0  0  0  0  0  0  0  0
   16.7302    3.3434   13.6835 C   0  0  0  0  0  0  0  0  0  0  0  0
   17.7780    3.8876   14.4250 C   0  0  0  0  0  0  0  0  0  0  0  0
   18.0524    3.3451   15.6617 C   0  0  0  0  0  0  0  0  0  0  0  0
   17.3807    2.3053   16.1913 N   0  0  0  0  0  0  0  0  0  0  0  0
   16.3935    1.7605   15.4742 C   0  0  0  0  0  0  0  0  0  0  0  0
   15.7662    0.6009   15.8912 N   0  0  0  0  0  0  0  0  0  0  0  0
   15.8909   -0.0425   17.1901 C   0  0  0  0  0  0  0  0  0  0  0  0
   17.2639   -0.5864   17.5667 C   0  0  0  0  0  0  0  0  0  0  0  0
   17.1248   -0.6913   19.0584 C   0  0  0  0  0  0  0  0  0  0  0  0
   16.1028    0.0478   19.5128 C   0  0  0  0  0  0  0  0  0  0  0  0
   15.3977    0.7588   18.3951 C   0  0  0  0  0  0  0  0  0  0  0  0
   16.0240    2.2818   14.2271 C   0  0  0  0  0  0  0  0  0  0  0  0
   13.5001    4.8352   10.3995 N   0  0  0  0  0  0  0  0  0  0  0  0
   13.3571    6.1548    9.9279 O   0  0  0  0  0  0  0  0  0  0  0  0
  1  2  1  0
  2  3  1  0
  3  4  2  0
  4  5  1  0
  5  6  1  0
  6  7  1  0
  7  8  2  0
  7  9  1  0
  9 10  2  0
 10 11  1  0
 11 12  2  0
 12 13  1  0
 13 14  1  0
 14 15  1  0
 15 16  1  0
 16 17  1  0
 17 18  2  0
 18 19  1  0
 13 20  2  0
  5 21  2  0
 21 22  1  0
 22  3  1  0
 20  9  1  0
 19 15  1  0
M  END
>  <original ID>  (4) 
WXVLITNXXROEMR-UHFFFAOYSA-N

>  <generation_date>  (4) 
None

>  <alias>  (4) 
None

>  <original SMILES>  (4) 
CCc1nc(NC(=O)c2ccnc(NC3CC=CC3)c2)no1

>  <HIPPO ID>  (4) 
6297

>  <tags>  (4) 
['Syndirella base']

>  <ref_pdb>  (4) 
c0300a

>  <method>  (4) 
None

>  <ref_url>  (4) 
None

>  <inchikey>  (4) 
WXVLITNXXROEMR-UHFFFAOYSA-N

>  <submitter_email>  (4) 
None

>  <ref_mols>  (4) 
c0316a,c0441a

>  <submitter_name>  (4) 
None

$$$$
KFTGNVACZZQQFY-UHFFFAOYSA-N
     RDKit          3D

 22 23  0  0  0  0  0  0  0  0999 V2000
   22.0033   11.5338   10.8330 C   0  0  0  0  0  0  0  0  0  0  0  0
   20.7142   12.0405   11.1452 O   0  0  0  0  0  0  0  0  0  0  0  0
   19.7835   11.3640   10.4719 C   0  0  0  0  0  0  0  0  0  0  0  0
   20.0073   10.4926    9.6577 O   0  0  0  0  0  0  0  0  0  0  0  0
   18.3530   11.7691   10.8686 C   0  0  0  0  0  0  0  0  0  0  0  0
   18.1826   12.6847   11.6621 O   0  0  0  0  0  0  0  0  0  0  0  0
   17.3611   10.9781   10.2976 N   0  0  0  0  0  0  0  0  0  0  0  0
   16.1353   10.8323   10.9448 C   0  0  0  0  0  0  0  0  0  0  0  0
   15.5218   11.8716   11.6560 C   0  0  0  0  0  0  0  0  0  0  0  0
   14.6272   11.5872   12.6704 C   0  0  0  0  0  0  0  0  0  0  0  0
   14.4137   10.2587   12.9985 C   0  0  0  0  0  0  0  0  0  0  0  0
   14.9487    9.2364   12.1936 C   0  0  0  0  0  0  0  0  0  0  0  0
   14.8151    7.8012   12.4896 C   0  0  0  0  0  0  0  0  0  0  0  0
   14.9569    6.9725   11.5969 O   0  0  0  0  0  0  0  0  0  0  0  0
   14.5891    7.4779   13.8026 N   0  0  0  0  0  0  0  0  0  0  0  0
   14.1680    6.1480   14.1500 C   0  0  0  0  0  0  0  0  0  0  0  0
   12.7077    6.0364   13.8501 C   0  0  0  0  0  0  0  0  0  0  0  0
   12.1103    5.3675   12.8004 C   0  0  0  0  0  0  0  0  0  0  0  0
   10.6917    5.4722   12.8293 C   0  0  0  0  0  0  0  0  0  0  0  0
   10.2528    6.2367   13.8860 C   0  0  0  0  0  0  0  0  0  0  0  0
   11.5470    6.8293   14.8332 S   0  0  0  0  0  0  0  0  0  0  0  0
   15.7239    9.5301   11.0888 C   0  0  0  0  0  0  0  0  0  0  0  0
  1  2  1  0
  2  3  1  0
  3  4  2  0
  3  5  1  0
  5  6  2  0
  5  7  1  0
  7  8  1  0
  8  9  2  0
  9 10  1  0
 10 11  2  0
 11 12  1  0
 12 13  1  0
 13 14  2  0
 13 15  1  0
 15 16  1  0
 16 17  1  0
 17 18  2  0
 18 19  1  0
 19 20  2  0
 20 21  1  0
 12 22  2  0
 22  8  1  0
 21 17  1  0
M  END
>  <original ID>  (5) 
KFTGNVACZZQQFY-UHFFFAOYSA-N

>  <generation_date>  (5) 
None

>  <alias>  (5) 
None

>  <original SMILES>  (5) 
COC(=O)C(=O)Nc1cccc(C(=O)NCc2cccs2)c1

>  <HIPPO ID>  (5) 
15537

>  <tags>  (5) 
[]

>  <ref_pdb>  (5) 
c0270a

>  <method>  (5) 
None

>  <ref_url>  (5) 
None

>  <inchikey>  (5) 
KFTGNVACZZQQFY-UHFFFAOYSA-N

>  <submitter_email>  (5) 
None

>  <ref_mols>  (5) 
c0692a,c0892a

>  <submitter_name>  (5) 
None

$$$$
JNAFQHXNLQQKAQ-UHFFFAOYSA-N
     RDKit          3D

 22 23  0  0  0  0  0  0  0  0999 V2000
   20.9032   11.9953   10.9476 C   0  0  0  0  0  0  0  0  0  0  0  0
   19.5548   12.0514   11.0170 C   0  0  0  0  0  0  0  0  0  0  0  0
   18.8258   13.0229   11.6254 O   0  0  0  0  0  0  0  0  0  0  0  0
   19.5202   14.2118   11.9138 C   0  0  0  0  0  0  0  0  0  0  0  0
   18.7846   11.0515   10.2302 C   0  0  0  0  0  0  0  0  0  0  0  0
   19.4400   10.3497    9.4704 O   0  0  0  0  0  0  0  0  0  0  0  0
   17.4235   10.9938   10.1099 N   0  0  0  0  0  0  0  0  0  0  0  0
   16.4853   10.8771   11.1196 C   0  0  0  0  0  0  0  0  0  0  0  0
   16.0184   11.9533   11.8669 C   0  0  0  0  0  0  0  0  0  0  0  0
   15.0476   11.7476   12.8418 C   0  0  0  0  0  0  0  0  0  0  0  0
   14.6038   10.4537   13.0990 C   0  0  0  0  0  0  0  0  0  0  0  0
   15.0693    9.3909   12.3144 C   0  0  0  0  0  0  0  0  0  0  0  0
   14.7494    7.9741   12.5445 C   0  0  0  0  0  0  0  0  0  0  0  0
   14.7748    7.1767   11.6141 O   0  0  0  0  0  0  0  0  0  0  0  0
   14.5114    7.6278   13.8479 N   0  0  0  0  0  0  0  0  0  0  0  0
   14.1286    6.2828   14.1840 C   0  0  0  0  0  0  0  0  0  0  0  0
   12.6775    6.1125   13.8746 C   0  0  0  0  0  0  0  0  0  0  0  0
   12.1141    5.4097   12.8280 C   0  0  0  0  0  0  0  0  0  0  0  0
   10.6923    5.4545   12.8494 C   0  0  0  0  0  0  0  0  0  0  0  0
   10.2168    6.2070   13.8989 C   0  0  0  0  0  0  0  0  0  0  0  0
   11.4801    6.8589   14.8488 S   0  0  0  0  0  0  0  0  0  0  0  0
   15.9439    9.6184   11.2727 C   0  0  0  0  0  0  0  0  0  0  0  0
  1  2  2  0
  2  3  1  0
  3  4  1  0
  2  5  1  0
  5  6  2  0
  5  7  1  0
  7  8  1  0
  8  9  2  0
  9 10  1  0
 10 11  2  0
 11 12  1  0
 12 13  1  0
 13 14  2  0
 13 15  1  0
 15 16  1  0
 16 17  1  0
 17 18  2  0
 18 19  1  0
 19 20  2  0
 20 21  1  0
 12 22  2  0
 22  8  1  0
 21 17  1  0
M  END
>  <original ID>  (6) 
JNAFQHXNLQQKAQ-UHFFFAOYSA-N

>  <generation_date>  (6) 
None

>  <alias>  (6) 
None

>  <original SMILES>  (6) 
C=C(OC)C(=O)Nc1cccc(C(=O)NCc2cccs2)c1

>  <HIPPO ID>  (6) 
15549

>  <tags>  (6) 
[]

>  <ref_pdb>  (6) 
c0270a

>  <method>  (6) 
None

>  <ref_url>  (6) 
None

>  <inchikey>  (6) 
JNAFQHXNLQQKAQ-UHFFFAOYSA-N

>  <submitter_email>  (6) 
None

>  <ref_mols>  (6) 
c0692a,c0892a

>  <submitter_name>  (6) 
None

$$$$
CQPQOENVXXFLSV-UHFFFAOYSA-N
     RDKit          3D

 22 23  0  0  0  0  0  0  0  0999 V2000
   20.0918   11.4927   10.6426 C   0  0  0  0  0  0  0  0  0  0  0  0
   18.7085   11.7919   10.4656 O   0  0  0  0  0  0  0  0  0  0  0  0
   17.9088   10.6337   10.4658 C   0  0  0  0  0  0  0  0  0  0  0  0
   16.6982   10.2934    9.5066 C   0  0  0  0  0  0  0  0  0  0  0  0
   16.6407    9.3029    8.7769 O   0  0  0  0  0  0  0  0  0  0  0  0
   15.5120   11.0050    9.5579 N   0  0  0  0  0  0  0  0  0  0  0  0
   14.9159   10.9163   10.8092 C   0  0  0  0  0  0  0  0  0  0  0  0
   14.6904   12.0500   11.5643 C   0  0  0  0  0  0  0  0  0  0  0  0
   14.5561   11.8953   12.9338 C   0  0  0  0  0  0  0  0  0  0  0  0
   14.7084   10.6250   13.5112 C   0  0  0  0  0  0  0  0  0  0  0  0
   14.7963   10.5736   15.2195 Cl  0  0  0  0  0  0  0  0  0  0  0  0
   14.8605    9.4882   12.7108 C   0  0  0  0  0  0  0  0  0  0  0  0
   15.0510    8.0797   13.1061 C   0  0  0  0  0  0  0  0  0  0  0  0
   15.5780    7.2908   12.3249 O   0  0  0  0  0  0  0  0  0  0  0  0
   14.5473    7.7058   14.3171 N   0  0  0  0  0  0  0  0  0  0  0  0
   14.1943    6.3266   14.5376 C   0  0  0  0  0  0  0  0  0  0  0  0
   12.8023    6.1327   14.0205 C   0  0  0  0  0  0  0  0  0  0  0  0
   12.3950    5.4424   12.8962 C   0  0  0  0  0  0  0  0  0  0  0  0
   10.9800    5.4612   12.7338 C   0  0  0  0  0  0  0  0  0  0  0  0
   10.3554    6.1823   13.7253 C   0  0  0  0  0  0  0  0  0  0  0  0
   11.4697    6.8436   14.8381 S   0  0  0  0  0  0  0  0  0  0  0  0
   14.8693    9.6417   11.3447 C   0  0  0  0  0  0  0  0  0  0  0  0
  1  2  1  0
  2  3  1  0
  3  4  1  0
  4  5  2  0
  4  6  1  0
  6  7  1  0
  7  8  2  0
  8  9  1  0
  9 10  2  0
 10 11  1  0
 10 12  1  0
 12 13  1  0
 13 14  2  0
 13 15  1  0
 15 16  1  0
 16 17  1  0
 17 18  2  0
 18 19  1  0
 19 20  2  0
 20 21  1  0
 12 22  2  0
 22  7  1  0
 21 17  1  0
M  END
>  <original ID>  (7) 
CQPQOENVXXFLSV-UHFFFAOYSA-N

>  <generation_date>  (7) 
None

>  <alias>  (7) 
None

>  <original SMILES>  (7) 
COCC(=O)Nc1ccc(Cl)c(C(=O)NCc2cccs2)c1

>  <HIPPO ID>  (7) 
15550

>  <tags>  (7) 
[]

>  <ref_pdb>  (7) 
c0270a

>  <method>  (7) 
None

>  <ref_url>  (7) 
None

>  <inchikey>  (7) 
CQPQOENVXXFLSV-UHFFFAOYSA-N

>  <submitter_email>  (7) 
None

>  <ref_mols>  (7) 
c0692a,c0892a

>  <submitter_name>  (7) 
None

$$$$
ZYJRWEACKGDWIL-UHFFFAOYSA-N
     RDKit          3D

 23 24  0  0  0  0  0  0  0  0999 V2000
   20.4601   11.4883   10.5286 C   0  0  0  0  0  0  0  0  0  0  0  0
   19.1801   11.8447   10.7490 C   0  0  0  0  0  0  0  0  0  0  0  0
   18.7654   13.0353   11.2724 O   0  0  0  0  0  0  0  0  0  0  0  0
   19.7736   13.8939   11.7613 C   0  0  0  0  0  0  0  0  0  0  0  0
   18.0724   10.8730   10.4415 C   0  0  0  0  0  0  0  0  0  0  0  0
   18.2167    9.6742   10.5511 O   0  0  0  0  0  0  0  0  0  0  0  0
   16.8341   11.3156   10.0425 N   0  0  0  0  0  0  0  0  0  0  0  0
   15.7908   11.0526   10.9346 C   0  0  0  0  0  0  0  0  0  0  0  0
   15.3892   12.0728   11.7837 C   0  0  0  0  0  0  0  0  0  0  0  0
   14.7767   11.7320   12.9685 C   0  0  0  0  0  0  0  0  0  0  0  0
   14.6540   10.3801   13.3000 C   0  0  0  0  0  0  0  0  0  0  0  0
   14.2738   10.0773   14.9421 Cl  0  0  0  0  0  0  0  0  0  0  0  0
   14.9390    9.3699   12.3638 C   0  0  0  0  0  0  0  0  0  0  0  0
   14.8552    7.9006   12.5496 C   0  0  0  0  0  0  0  0  0  0  0  0
   14.9539    7.1519   11.5805 O   0  0  0  0  0  0  0  0  0  0  0  0
   14.6691    7.4319   13.8208 N   0  0  0  0  0  0  0  0  0  0  0  0
   14.2399    6.0763   14.0407 C   0  0  0  0  0  0  0  0  0  0  0  0
   12.7700    6.0001   13.7685 C   0  0  0  0  0  0  0  0  0  0  0  0
   12.1371    5.3503   12.7277 C   0  0  0  0  0  0  0  0  0  0  0  0
   10.7210    5.4772   12.7901 C   0  0  0  0  0  0  0  0  0  0  0  0
   10.3181    6.2399   13.8623 C   0  0  0  0  0  0  0  0  0  0  0  0
   11.6429    6.8004   14.7862 S   0  0  0  0  0  0  0  0  0  0  0  0
   15.4273    9.7348   11.1235 C   0  0  0  0  0  0  0  0  0  0  0  0
  1  2  2  0
  2  3  1  0
  3  4  1  0
  2  5  1  0
  5  6  2  0
  5  7  1  0
  7  8  1  0
  8  9  2  0
  9 10  1  0
 10 11  2  0
 11 12  1  0
 11 13  1  0
 13 14  1  0
 14 15  2  0
 14 16  1  0
 16 17  1  0
 17 18  1  0
 18 19  2  0
 19 20  1  0
 20 21  2  0
 21 22  1  0
 13 23  2  0
 23  8  1  0
 22 18  1  0
M  END
>  <original ID>  (8) 
ZYJRWEACKGDWIL-UHFFFAOYSA-N

>  <generation_date>  (8) 
None

>  <alias>  (8) 
None

>  <original SMILES>  (8) 
C=C(OC)C(=O)Nc1ccc(Cl)c(C(=O)NCc2cccs2)c1

>  <HIPPO ID>  (8) 
15588

>  <tags>  (8) 
[]

>  <ref_pdb>  (8) 
c0270a

>  <method>  (8) 
None

>  <ref_url>  (8) 
None

>  <inchikey>  (8) 
ZYJRWEACKGDWIL-UHFFFAOYSA-N

>  <submitter_email>  (8) 
None

>  <ref_mols>  (8) 
c0692a,c0892a

>  <submitter_name>  (8) 
None

$$$$
KVXWTYCCRQGYCW-UHFFFAOYSA-N
     RDKit          3D

 25 27  0  0  0  0  0  0  0  0999 V2000
   15.7919    7.8178   11.6223 C   0  0  0  0  0  0  0  0  0  0  0  0
   15.0835    7.6940   10.2924 C   0  0  0  0  0  0  0  0  0  0  0  0
   15.9503    8.3094    9.3475 O   0  0  0  0  0  0  0  0  0  0  0  0
   16.1312    9.7057    9.3168 C   0  0  0  0  0  0  0  0  0  0  0  0
   15.1130   10.6666    9.9010 C   0  0  0  0  0  0  0  0  0  0  0  0
   13.9301   10.6459    9.5875 O   0  0  0  0  0  0  0  0  0  0  0  0
   15.6048   11.6017   10.7775 N   0  0  0  0  0  0  0  0  0  0  0  0
   15.0592   11.8065   12.0526 C   0  0  0  0  0  0  0  0  0  0  0  0
   15.3382   12.9789   12.7401 C   0  0  0  0  0  0  0  0  0  0  0  0
   15.1555   13.0235   14.1173 C   0  0  0  0  0  0  0  0  0  0  0  0
   14.8297   11.8576   14.8040 C   0  0  0  0  0  0  0  0  0  0  0  0
   14.5630   10.6783   14.1064 C   0  0  0  0  0  0  0  0  0  0  0  0
   14.4763    9.4109   14.8726 C   0  0  0  0  0  0  0  0  0  0  0  0
   14.8122    9.4080   16.0497 O   0  0  0  0  0  0  0  0  0  0  0  0
   14.0329    8.2834   14.2432 N   0  0  0  0  0  0  0  0  0  0  0  0
   13.9223    7.0001   14.8983 C   0  0  0  0  0  0  0  0  0  0  0  0
   12.6566    6.3665   14.4170 C   0  0  0  0  0  0  0  0  0  0  0  0
   12.4973    5.2761   13.5855 C   0  0  0  0  0  0  0  0  0  0  0  0
   11.1285    5.0226   13.2798 C   0  0  0  0  0  0  0  0  0  0  0  0
   10.2858    5.8972   13.9253 C   0  0  0  0  0  0  0  0  0  0  0  0
   11.1403    7.0199   14.8859 S   0  0  0  0  0  0  0  0  0  0  0  0
   14.5510   10.7061   12.7251 C   0  0  0  0  0  0  0  0  0  0  0  0
   13.6180    7.7890    9.7728 C   0  0  0  0  0  0  0  0  0  0  0  0
   13.2984    6.5470   10.5766 C   0  0  0  0  0  0  0  0  0  0  0  0
   14.7404    6.1425   10.2680 C   0  0  0  0  0  0  0  0  0  0  0  0
  1  2  1  0
  2  3  1  0
  3  4  1  0
  4  5  1  0
  5  6  2  0
  5  7  1  0
  7  8  1  0
  8  9  2  0
  9 10  1  0
 10 11  2  0
 11 12  1  0
 12 13  1  0
 13 14  2  0
 13 15  1  0
 15 16  1  0
 16 17  1  0
 17 18  2  0
 18 19  1  0
 19 20  2  0
 20 21  1  0
 12 22  2  0
  2 23  1  0
 23 24  1  0
 24 25  1  0
 25  2  1  0
 22  8  1  0
 21 17  1  0
M  END
>  <original ID>  (9) 
KVXWTYCCRQGYCW-UHFFFAOYSA-N

>  <generation_date>  (9) 
None

>  <alias>  (9) 
None

>  <original SMILES>  (9) 
CC1(OCC(=O)Nc2cccc(C(=O)NCc3cccs3)c2)CCC1

>  <HIPPO ID>  (9) 
15894

>  <tags>  (9) 
[]

>  <ref_pdb>  (9) 
c0270a

>  <method>  (9) 
None

>  <ref_url>  (9) 
None

>  <inchikey>  (9) 
KVXWTYCCRQGYCW-UHFFFAOYSA-N

>  <submitter_email>  (9) 
None

>  <ref_mols>  (9) 
c0692a,c0892a

>  <submitter_name>  (9) 
None

$$$$
DPSFCHHUOUEPFQ-UHFFFAOYSA-N
     RDKit          3D

 26 28  0  0  0  0  0  0  0  0999 V2000
   13.3024    9.1144    8.9252 C   0  0  0  0  0  0  0  0  0  0  0  0
   14.2987    8.1745    9.5669 C   0  0  0  0  0  0  0  0  0  0  0  0
   15.5466    8.3756    8.9206 O   0  0  0  0  0  0  0  0  0  0  0  0
   16.1916    9.6264    8.8753 C   0  0  0  0  0  0  0  0  0  0  0  0
   16.9297    9.8776   10.1355 C   0  0  0  0  0  0  0  0  0  0  0  0
   17.2224    8.9310   10.8400 O   0  0  0  0  0  0  0  0  0  0  0  0
   17.0723   11.1463   10.5740 N   0  0  0  0  0  0  0  0  0  0  0  0
   16.4039   11.5318   11.7246 C   0  0  0  0  0  0  0  0  0  0  0  0
   16.1738   12.8635   11.9451 C   0  0  0  0  0  0  0  0  0  0  0  0
   15.2947   13.1969   12.9276 C   0  0  0  0  0  0  0  0  0  0  0  0
   14.7451   12.1902   13.7362 C   0  0  0  0  0  0  0  0  0  0  0  0
   13.9908   12.8720   15.0709 Cl  0  0  0  0  0  0  0  0  0  0  0  0
   14.9932   10.8282   13.5719 C   0  0  0  0  0  0  0  0  0  0  0  0
   14.4080    9.6752   14.3491 C   0  0  0  0  0  0  0  0  0  0  0  0
   13.5624    9.8860   15.2027 O   0  0  0  0  0  0  0  0  0  0  0  0
   14.7960    8.3591   14.1057 N   0  0  0  0  0  0  0  0  0  0  0  0
   14.3472    7.2480   14.9389 C   0  0  0  0  0  0  0  0  0  0  0  0
   13.0616    6.6215   14.4654 C   0  0  0  0  0  0  0  0  0  0  0  0
   12.8732    5.4192   13.8035 C   0  0  0  0  0  0  0  0  0  0  0  0
   11.5047    5.1706   13.4743 C   0  0  0  0  0  0  0  0  0  0  0  0
   10.6748    6.1350   13.9941 C   0  0  0  0  0  0  0  0  0  0  0  0
   11.5434    7.3160   14.8667 S   0  0  0  0  0  0  0  0  0  0  0  0
   15.8835   10.5567   12.5788 C   0  0  0  0  0  0  0  0  0  0  0  0
   14.4522    8.0294   11.0840 C   0  0  0  0  0  0  0  0  0  0  0  0
   13.6125    6.7712   11.0803 C   0  0  0  0  0  0  0  0  0  0  0  0
   13.8332    6.6874    9.5956 C   0  0  0  0  0  0  0  0  0  0  0  0
  1  2  1  0
  2  3  1  0
  3  4  1  0
  4  5  1  0
  5  6  2  0
  5  7  1  0
  7  8  1  0
  8  9  2  0
  9 10  1  0
 10 11  2  0
 11 12  1  0
 11 13  1  0
 13 14  1  0
 14 15  2  0
 14 16  1  0
 16 17  1  0
 17 18  1  0
 18 19  2  0
 19 20  1  0
 20 21  2  0
 21 22  1  0
 13 23  2  0
  2 24  1  0
 24 25  1  0
 25 26  1  0
 26  2  1  0
 23  8  1  0
 22 18  1  0
M  END
>  <original ID>  (10) 
DPSFCHHUOUEPFQ-UHFFFAOYSA-N

>  <generation_date>  (10) 
None

>  <alias>  (10) 
None

>  <original SMILES>  (10) 
CC1(OCC(=O)Nc2ccc(Cl)c(C(=O)NCc3cccs3)c2)CCC1

>  <HIPPO ID>  (10) 
16330

>  <tags>  (10) 
[]

>  <ref_pdb>  (10) 
c0270a

>  <method>  (10) 
None

>  <ref_url>  (10) 
None

>  <inchikey>  (10) 
DPSFCHHUOUEPFQ-UHFFFAOYSA-N

>  <submitter_email>  (10) 
None

>  <ref_mols>  (10) 
c0692a,c0892a

>  <submitter_name>  (10) 
None

$$$$
OSVPILYNQAVMCL-OYRHEFFESA-N
     RDKit          3D

 27 30  0  0  0  0  0  0  0  0999 V2000
   23.7180   13.5812   11.7228 C   0  0  0  0  0  0  0  0  0  0  0  0
   22.2348   13.2836   11.5912 C   0  0  1  0  0  0  0  0  0  0  0  0
   21.4914   13.3434   12.9418 C   0  0  0  0  0  0  0  0  0  0  0  0
   19.9800   13.2063   12.6898 C   0  0  0  0  0  0  0  0  0  0  0  0
   19.7329   12.6142   11.3162 C   0  0  1  0  0  0  0  0  0  0  0  0
   18.3747   11.8359   11.1281 C   0  0  0  0  0  0  0  0  0  0  0  0
   18.3390   10.6689   10.7190 O   0  0  0  0  0  0  0  0  0  0  0  0
   17.1439   12.4238   11.3280 N   0  0  0  0  0  0  0  0  0  0  0  0
   16.2306   11.8186   12.2463 C   0  0  0  0  0  0  0  0  0  0  0  0
   15.7241   12.5415   13.3166 C   0  0  0  0  0  0  0  0  0  0  0  0
   14.8729   11.9035   14.2196 C   0  0  0  0  0  0  0  0  0  0  0  0
   14.5589   10.5473   14.0589 C   0  0  0  0  0  0  0  0  0  0  0  0
   15.0481    9.8376   12.9585 C   0  0  0  0  0  0  0  0  0  0  0  0
   14.8413    8.3833   12.7363 C   0  0  0  0  0  0  0  0  0  0  0  0
   14.8828    7.9017   11.6106 O   0  0  0  0  0  0  0  0  0  0  0  0
   14.6560    7.6414   13.8744 N   0  0  0  0  0  0  0  0  0  0  0  0
   14.3114    6.2442   13.8110 C   0  0  0  0  0  0  0  0  0  0  0  0
   12.8324    6.1039   13.6332 C   0  0  0  0  0  0  0  0  0  0  0  0
   12.1680    5.4335   12.6253 C   0  0  0  0  0  0  0  0  0  0  0  0
   10.7538    5.4816   12.7799 C   0  0  0  0  0  0  0  0  0  0  0  0
   10.3799    6.1999   13.8923 C   0  0  0  0  0  0  0  0  0  0  0  0
   11.7303    6.8029   14.7503 S   0  0  0  0  0  0  0  0  0  0  0  0
   15.8295   10.4971   12.0295 C   0  0  0  0  0  0  0  0  0  0  0  0
   20.1060   13.7884   10.4134 C   0  0  0  0  0  0  0  0  0  0  0  0
   21.5359   14.2795   10.6625 C   0  0  0  0  0  0  0  0  0  0  0  0
   20.6584   11.5238   11.0788 O   0  0  0  0  0  0  0  0  0  0  0  0
   22.0298   11.8825   11.0122 C   0  0  0  0  0  0  0  0  0  0  0  0
  2  1  1  1
  2  3  1  0
  3  4  1  0
  4  5  1  0
  5  6  1  1
  6  7  2  0
  6  8  1  0
  8  9  1  0
  9 10  2  0
 10 11  1  0
 11 12  2  0
 12 13  1  0
 13 14  1  0
 14 15  2  0
 14 16  1  0
 16 17  1  0
 17 18  1  0
 18 19  2  0
 19 20  1  0
 20 21  2  0
 21 22  1  0
 13 23  2  0
  5 24  1  0
 24 25  1  0
  5 26  1  0
 26 27  1  0
 25  2  1  0
 27  2  1  0
 23  9  1  0
 22 18  1  0
M  END
>  <original ID>  (11) 
OSVPILYNQAVMCL-OYRHEFFESA-N

>  <generation_date>  (11) 
None

>  <alias>  (11) 
None

>  <original SMILES>  (11) 
C[C@]12CC[C@](C(=O)Nc3cccc(C(=O)NCc4cccs4)c3)(CC1)OC2

>  <HIPPO ID>  (11) 
16542

>  <tags>  (11) 
[]

>  <ref_pdb>  (11) 
c0270a

>  <method>  (11) 
None

>  <ref_url>  (11) 
None

>  <inchikey>  (11) 
OSVPILYNQAVMCL-OYRHEFFESA-N

>  <submitter_email>  (11) 
None

>  <ref_mols>  (11) 
c0692a,c0892a

>  <submitter_name>  (11) 
None

$$$$
CLGIWUMDSDMLQX-HXUWFJFHSA-N
     RDKit          3D

 27 29  0  0  0  0  0  0  0  0999 V2000
   18.1702   10.8867   10.3174 C   0  0  0  0  0  0  0  0  0  0  0  0
   16.8088   10.5107    9.7374 C   0  0  0  0  0  0  0  0  0  0  0  0
   16.7704    9.3686    8.7790 C   0  0  0  0  0  0  0  0  0  0  0  0
   15.9949   10.1197   10.7957 O   0  0  0  0  0  0  0  0  0  0  0  0
   14.6083    9.9092   10.4709 C   0  0  2  0  0  0  0  0  0  0  0  0
   14.1864   11.3601   10.8997 C   0  0  0  0  0  0  0  0  0  0  0  0
   13.9887   12.1873    9.9980 O   0  0  0  0  0  0  0  0  0  0  0  0
   14.1780   11.9745   12.1023 N   0  0  0  0  0  0  0  0  0  0  0  0
   14.6432   11.4887   13.3016 C   0  0  0  0  0  0  0  0  0  0  0  0
   15.1128   12.2868   14.3217 C   0  0  0  0  0  0  0  0  0  0  0  0
   15.7315   11.6629   15.4158 C   0  0  0  0  0  0  0  0  0  0  0  0
   15.9202   10.2669   15.4510 C   0  0  0  0  0  0  0  0  0  0  0  0
   15.4157    9.5113   14.4153 C   0  0  0  0  0  0  0  0  0  0  0  0
   15.5021    8.0641   14.1704 C   0  0  0  0  0  0  0  0  0  0  0  0
   16.0959    7.6103   13.2018 O   0  0  0  0  0  0  0  0  0  0  0  0
   14.6975    7.3270   14.9865 N   0  0  0  0  0  0  0  0  0  0  0  0
   14.3012    5.9947   14.6067 C   0  0  0  0  0  0  0  0  0  0  0  0
   12.9395    6.0321   13.9771 C   0  0  0  0  0  0  0  0  0  0  0  0
   12.5352    5.4369   12.7976 C   0  0  0  0  0  0  0  0  0  0  0  0
   11.1384    5.5889   12.5618 C   0  0  0  0  0  0  0  0  0  0  0  0
   10.5242    6.3194   13.5526 C   0  0  0  0  0  0  0  0  0  0  0  0
   11.6265    6.8244   14.7549 S   0  0  0  0  0  0  0  0  0  0  0  0
   14.6804   10.1401   13.4587 C   0  0  0  0  0  0  0  0  0  0  0  0
   14.4464    8.4330   10.8480 C   0  0  0  0  0  0  0  0  0  0  0  0
   13.8585    7.6735    9.6894 C   0  0  0  0  0  0  0  0  0  0  0  0
   13.7923    8.5404    8.5852 O   0  0  0  0  0  0  0  0  0  0  0  0
   13.9547    9.8635    9.0683 C   0  0  0  0  0  0  0  0  0  0  0  0
  1  2  1  0
  2  3  1  0
  2  4  1  0
  5  4  1  6
  5  6  1  0
  6  7  2  0
  6  8  1  0
  8  9  1  0
  9 10  2  0
 10 11  1  0
 11 12  2  0
 12 13  1  0
 13 14  1  0
 14 15  2  0
 14 16  1  0
 16 17  1  0
 17 18  1  0
 18 19  2  0
 19 20  1  0
 20 21  2  0
 21 22  1  0
 13 23  2  0
  5 24  1  0
 24 25  1  0
 25 26  1  0
 26 27  1  0
 27  5  1  0
 23  9  1  0
 22 18  1  0
M  END
>  <original ID>  (12) 
CLGIWUMDSDMLQX-HXUWFJFHSA-N

>  <generation_date>  (12) 
None

>  <alias>  (12) 
None

>  <original SMILES>  (12) 
CC(C)O[C@]1(C(=O)Nc2cccc(C(=O)NCc3cccs3)c2)CCOC1

>  <HIPPO ID>  (12) 
16639

>  <tags>  (12) 
[]

>  <ref_pdb>  (12) 
c0270a

>  <method>  (12) 
None

>  <ref_url>  (12) 
None

>  <inchikey>  (12) 
CLGIWUMDSDMLQX-HXUWFJFHSA-N

>  <submitter_email>  (12) 
None

>  <ref_mols>  (12) 
c0692a,c0892a

>  <submitter_name>  (12) 
None

$$$$
CLGIWUMDSDMLQX-FQEVSTJZSA-N
     RDKit          3D

 27 29  0  0  0  0  0  0  0  0999 V2000
   17.5130   11.1877   12.3403 C   0  0  0  0  0  0  0  0  0  0  0  0
   16.5491   10.2021   12.9991 C   0  0  0  0  0  0  0  0  0  0  0  0
   16.7507    9.2904   14.2231 C   0  0  0  0  0  0  0  0  0  0  0  0
   15.7406    9.4295   12.1401 O   0  0  0  0  0  0  0  0  0  0  0  0
   15.2975    9.9228   10.9040 C   0  0  1  0  0  0  0  0  0  0  0  0
   14.5385   11.2629   10.5377 C   0  0  0  0  0  0  0  0  0  0  0  0
   14.1120   11.4012    9.3949 O   0  0  0  0  0  0  0  0  0  0  0  0
   14.4135   12.3546   11.3499 N   0  0  0  0  0  0  0  0  0  0  0  0
   14.2203   12.2911   12.7241 C   0  0  0  0  0  0  0  0  0  0  0  0
   14.5693   13.3090   13.5810 C   0  0  0  0  0  0  0  0  0  0  0  0
   14.7162   12.9942   14.9373 C   0  0  0  0  0  0  0  0  0  0  0  0
   14.5236   11.6792   15.4039 C   0  0  0  0  0  0  0  0  0  0  0  0
   14.0185   10.7034   14.5491 C   0  0  0  0  0  0  0  0  0  0  0  0
   13.7837    9.2745   14.9263 C   0  0  0  0  0  0  0  0  0  0  0  0
   13.5536    9.0060   16.0934 O   0  0  0  0  0  0  0  0  0  0  0  0
   13.8794    8.3002   13.9522 N   0  0  0  0  0  0  0  0  0  0  0  0
   13.8267    6.8875   14.2639 C   0  0  0  0  0  0  0  0  0  0  0  0
   12.4931    6.3815   13.8380 C   0  0  0  0  0  0  0  0  0  0  0  0
   12.1736    5.6088   12.7400 C   0  0  0  0  0  0  0  0  0  0  0  0
   10.7768    5.3430   12.6643 C   0  0  0  0  0  0  0  0  0  0  0  0
   10.0813    5.9061   13.7082 C   0  0  0  0  0  0  0  0  0  0  0  0
   11.1012    6.7708   14.7638 S   0  0  0  0  0  0  0  0  0  0  0  0
   13.8178   11.0807   13.2459 C   0  0  0  0  0  0  0  0  0  0  0  0
   16.4994    9.9130    9.9793 C   0  0  0  0  0  0  0  0  0  0  0  0
   15.9437    9.2696    8.7689 C   0  0  0  0  0  0  0  0  0  0  0  0
   15.2396    8.1631    9.3066 O   0  0  0  0  0  0  0  0  0  0  0  0
   14.4499    8.7519   10.3256 C   0  0  0  0  0  0  0  0  0  0  0  0
  1  2  1  0
  2  3  1  0
  2  4  1  0
  5  4  1  1
  5  6  1  0
  6  7  2  0
  6  8  1  0
  8  9  1  0
  9 10  2  0
 10 11  1  0
 11 12  2  0
 12 13  1  0
 13 14  1  0
 14 15  2  0
 14 16  1  0
 16 17  1  0
 17 18  1  0
 18 19  2  0
 19 20  1  0
 20 21  2  0
 21 22  1  0
 13 23  2  0
  5 24  1  0
 24 25  1  0
 25 26  1  0
 26 27  1  0
 27  5  1  0
 23  9  1  0
 22 18  1  0
M  END
>  <original ID>  (13) 
CLGIWUMDSDMLQX-FQEVSTJZSA-N

>  <generation_date>  (13) 
None

>  <alias>  (13) 
None

>  <original SMILES>  (13) 
CC(C)O[C@@]1(C(=O)Nc2cccc(C(=O)NCc3cccs3)c2)CCOC1

>  <HIPPO ID>  (13) 
16640

>  <tags>  (13) 
[]

>  <ref_pdb>  (13) 
c0270a

>  <method>  (13) 
None

>  <ref_url>  (13) 
None

>  <inchikey>  (13) 
CLGIWUMDSDMLQX-FQEVSTJZSA-N

>  <submitter_email>  (13) 
None

>  <ref_mols>  (13) 
c0692a,c0892a

>  <submitter_name>  (13) 
None

$$$$
FTUSMXADIVAXNR-OYRHEFFESA-N
     RDKit          3D

 28 31  0  0  0  0  0  0  0  0999 V2000
   14.3064    6.2721   10.3524 C   0  0  0  0  0  0  0  0  0  0  0  0
   14.6547    7.7501   10.4999 C   0  0  2  0  0  0  0  0  0  0  0  0
   14.4373    8.1203   11.9557 C   0  0  0  0  0  0  0  0  0  0  0  0
   14.6876    9.6062   12.1425 C   0  0  0  0  0  0  0  0  0  0  0  0
   15.2610   10.2206   10.8594 C   0  0  2  0  0  0  0  0  0  0  0  0
   15.4875   11.7034   11.1100 C   0  0  0  0  0  0  0  0  0  0  0  0
   14.6334   12.5379   10.8230 O   0  0  0  0  0  0  0  0  0  0  0  0
   16.6178   11.9680   11.8773 N   0  0  0  0  0  0  0  0  0  0  0  0
   16.2902   12.4575   13.1565 C   0  0  0  0  0  0  0  0  0  0  0  0
   15.7035   13.7054   13.3248 C   0  0  0  0  0  0  0  0  0  0  0  0
   15.1160   14.0165   14.5446 C   0  0  0  0  0  0  0  0  0  0  0  0
   15.0376   13.0487   15.5534 C   0  0  0  0  0  0  0  0  0  0  0  0
   14.2345   13.5048   16.9956 Cl  0  0  0  0  0  0  0  0  0  0  0  0
   15.5803   11.7805   15.3505 C   0  0  0  0  0  0  0  0  0  0  0  0
   15.3519   10.6091   16.2298 C   0  0  0  0  0  0  0  0  0  0  0  0
   15.7257   10.6070   17.3919 O   0  0  0  0  0  0  0  0  0  0  0  0
   14.7046    9.5372   15.6285 N   0  0  0  0  0  0  0  0  0  0  0  0
   14.3783    8.3483   16.3904 C   0  0  0  0  0  0  0  0  0  0  0  0
   13.7101    7.3333   15.5100 C   0  0  0  0  0  0  0  0  0  0  0  0
   14.2715    6.2322   14.8902 C   0  0  0  0  0  0  0  0  0  0  0  0
   13.3255    5.4932   14.1195 C   0  0  0  0  0  0  0  0  0  0  0  0
   12.0621    6.0341   14.1953 C   0  0  0  0  0  0  0  0  0  0  0  0
   12.0229    7.4125   15.2039 S   0  0  0  0  0  0  0  0  0  0  0  0
   16.3077   11.5372   14.1959 C   0  0  0  0  0  0  0  0  0  0  0  0
   14.3888   10.0511    9.6067 C   0  0  0  0  0  0  0  0  0  0  0  0
   13.9121    8.6107    9.4773 C   0  0  0  0  0  0  0  0  0  0  0  0
   16.4550    9.4755   10.6958 O   0  0  0  0  0  0  0  0  0  0  0  0
   16.1124    8.1429   10.2887 C   0  0  0  0  0  0  0  0  0  0  0  0
  2  1  1  1
  2  3  1  0
  3  4  1  0
  4  5  1  0
  5  6  1  1
  6  7  2  0
  6  8  1  0
  8  9  1  0
  9 10  2  0
 10 11  1  0
 11 12  2  0
 12 13  1  0
 12 14  1  0
 14 15  1  0
 15 16  2  0
 15 17  1  0
 17 18  1  0
 18 19  1  0
 19 20  2  0
 20 21  1  0
 21 22  2  0
 22 23  1  0
 14 24  2  0
  5 25  1  0
 25 26  1  0
  5 27  1  0
 27 28  1  0
 26  2  1  0
 28  2  1  0
 24  9  1  0
 23 19  1  0
M  END
>  <original ID>  (14) 
FTUSMXADIVAXNR-OYRHEFFESA-N

>  <generation_date>  (14) 
None

>  <alias>  (14) 
None

>  <original SMILES>  (14) 
C[C@]12CC[C@](C(=O)Nc3ccc(Cl)c(C(=O)NCc4cccs4)c3)(CC1)OC2

>  <HIPPO ID>  (14) 
16870

>  <tags>  (14) 
[]

>  <ref_pdb>  (14) 
c0270a

>  <method>  (14) 
None

>  <ref_url>  (14) 
None

>  <inchikey>  (14) 
FTUSMXADIVAXNR-OYRHEFFESA-N

>  <submitter_email>  (14) 
None

>  <ref_mols>  (14) 
c0692a,c0892a

>  <submitter_name>  (14) 
None

$$$$
UFZNCSIZKGVNEE-UHFFFAOYSA-N
     RDKit          3D

 28 30  0  0  0  0  0  0  0  0999 V2000
   16.3203   13.3486   11.6481 O   0  0  0  0  0  0  0  0  0  0  0  0
   15.4731   12.5330   11.3151 C   0  0  0  0  0  0  0  0  0  0  0  0
   15.8250   11.3204   10.5558 C   0  0  0  0  0  0  0  0  0  0  0  0
   14.8052   11.1932    9.5809 O   0  0  0  0  0  0  0  0  0  0  0  0
   15.0491   10.0405    8.8358 C   0  0  0  0  0  0  0  0  0  0  0  0
   14.7736    8.8167    9.6152 C   0  0  0  0  0  0  0  0  0  0  0  0
   15.7466    8.2480   10.4282 C   0  0  0  0  0  0  0  0  0  0  0  0
   15.5731    6.9738   10.9143 C   0  0  0  0  0  0  0  0  0  0  0  0
   14.4803    6.2653   10.4650 C   0  0  0  0  0  0  0  0  0  0  0  0
   14.5210    4.5694   10.3910 Cl  0  0  0  0  0  0  0  0  0  0  0  0
   13.4332    6.8859    9.8362 C   0  0  0  0  0  0  0  0  0  0  0  0
   13.5707    8.1838    9.4177 C   0  0  0  0  0  0  0  0  0  0  0  0
   14.1748   12.6362   11.7389 N   0  0  0  0  0  0  0  0  0  0  0  0
   14.1242   12.0636   13.0221 C   0  0  0  0  0  0  0  0  0  0  0  0
   14.2846   12.8941   14.1190 C   0  0  0  0  0  0  0  0  0  0  0  0
   14.6360   12.3255   15.3265 C   0  0  0  0  0  0  0  0  0  0  0  0
   14.7389   10.9417   15.4411 C   0  0  0  0  0  0  0  0  0  0  0  0
   14.4499   10.1101   14.3603 C   0  0  0  0  0  0  0  0  0  0  0  0
   14.2492    8.6873   14.6465 C   0  0  0  0  0  0  0  0  0  0  0  0
   13.9355    8.4036   15.7968 O   0  0  0  0  0  0  0  0  0  0  0  0
   14.3194    7.7470   13.6584 N   0  0  0  0  0  0  0  0  0  0  0  0
   13.9577    6.3770   13.9684 C   0  0  0  0  0  0  0  0  0  0  0  0
   12.4921    6.1530   13.7289 C   0  0  0  0  0  0  0  0  0  0  0  0
   11.8914    5.3056   12.8191 C   0  0  0  0  0  0  0  0  0  0  0  0
   10.4712    5.3183   12.8995 C   0  0  0  0  0  0  0  0  0  0  0  0
   10.0220    6.1603   13.8871 C   0  0  0  0  0  0  0  0  0  0  0  0
   11.3051    6.9274   14.7038 S   0  0  0  0  0  0  0  0  0  0  0  0
   14.2007   10.6786   13.1360 C   0  0  0  0  0  0  0  0  0  0  0  0
  1  2  2  0
  2  3  1  0
  3  4  1  0
  4  5  1  0
  5  6  1  0
  6  7  2  0
  7  8  1  0
  8  9  2  0
  9 10  1  0
  9 11  1  0
 11 12  2  0
  2 13  1  0
 13 14  1  0
 14 15  2  0
 15 16  1  0
 16 17  2  0
 17 18  1  0
 18 19  1  0
 19 20  2  0
 19 21  1  0
 21 22  1  0
 22 23  1  0
 23 24  2  0
 24 25  1  0
 25 26  2  0
 26 27  1  0
 18 28  2  0
 12  6  1  0
 28 14  1  0
 27 23  1  0
M  END
>  <original ID>  (15) 
UFZNCSIZKGVNEE-UHFFFAOYSA-N

>  <generation_date>  (15) 
None

>  <alias>  (15) 
None

>  <original SMILES>  (15) 
O=C(COCc1ccc(Cl)cc1)Nc1cccc(C(=O)NCc2cccs2)c1

>  <HIPPO ID>  (15) 
17037

>  <tags>  (15) 
[]

>  <ref_pdb>  (15) 
c0270a

>  <method>  (15) 
None

>  <ref_url>  (15) 
None

>  <inchikey>  (15) 
UFZNCSIZKGVNEE-UHFFFAOYSA-N

>  <submitter_email>  (15) 
None

>  <ref_mols>  (15) 
c0692a,c0892a

>  <submitter_name>  (15) 
None

$$$$
FQMRSNBGXSZBOV-HXUWFJFHSA-N
     RDKit          3D

 28 30  0  0  0  0  0  0  0  0999 V2000
   14.6344    9.2694    9.2785 C   0  0  0  0  0  0  0  0  0  0  0  0
   15.2741    8.6425   10.4959 C   0  0  0  0  0  0  0  0  0  0  0  0
   14.7395    7.2222   10.6981 C   0  0  0  0  0  0  0  0  0  0  0  0
   14.9262    9.3417   11.6756 O   0  0  0  0  0  0  0  0  0  0  0  0
   15.5047   10.6064   12.0097 C   0  0  2  0  0  0  0  0  0  0  0  0
   15.7517   10.4340   13.5167 C   0  0  0  0  0  0  0  0  0  0  0  0
   15.3228   11.1948   14.3791 O   0  0  0  0  0  0  0  0  0  0  0  0
   16.3991    9.2240   13.7870 N   0  0  0  0  0  0  0  0  0  0  0  0
   15.8592    8.5371   14.8797 C   0  0  0  0  0  0  0  0  0  0  0  0
   15.9309    9.0564   16.1703 C   0  0  0  0  0  0  0  0  0  0  0  0
   14.9611    8.6869   17.0944 C   0  0  0  0  0  0  0  0  0  0  0  0
   13.8926    7.8942   16.6769 C   0  0  0  0  0  0  0  0  0  0  0  0
   12.5828    7.6294   17.7508 Cl  0  0  0  0  0  0  0  0  0  0  0  0
   13.8750    7.3755   15.3849 C   0  0  0  0  0  0  0  0  0  0  0  0
   12.6199    7.1799   14.6715 C   0  0  0  0  0  0  0  0  0  0  0  0
   11.8812    8.1521   14.5759 O   0  0  0  0  0  0  0  0  0  0  0  0
   12.4527    5.9840   14.0275 N   0  0  0  0  0  0  0  0  0  0  0  0
   11.3362    5.7990   13.1321 C   0  0  0  0  0  0  0  0  0  0  0  0
   10.1025    5.4365   13.8928 C   0  0  0  0  0  0  0  0  0  0  0  0
    9.3866    4.2614   13.8153 C   0  0  0  0  0  0  0  0  0  0  0  0
    8.2810    4.2410   14.7113 C   0  0  0  0  0  0  0  0  0  0  0  0
    8.1485    5.4206   15.4029 C   0  0  0  0  0  0  0  0  0  0  0  0
    9.3449    6.5434   14.9657 S   0  0  0  0  0  0  0  0  0  0  0  0
   14.9339    7.5733   14.5237 C   0  0  0  0  0  0  0  0  0  0  0  0
   14.5668   11.7689   11.7988 C   0  0  0  0  0  0  0  0  0  0  0  0
   15.5061   12.9263   12.0439 C   0  0  0  0  0  0  0  0  0  0  0  0
   16.7798   12.5377   11.5042 O   0  0  0  0  0  0  0  0  0  0  0  0
   16.7806   11.1026   11.3488 C   0  0  0  0  0  0  0  0  0  0  0  0
  1  2  1  0
  2  3  1  0
  2  4  1  0
  5  4  1  6
  5  6  1  0
  6  7  2  0
  6  8  1  0
  8  9  1  0
  9 10  2  0
 10 11  1  0
 11 12  2  0
 12 13  1  0
 12 14  1  0
 14 15  1  0
 15 16  2  0
 15 17  1  0
 17 18  1  0
 18 19  1  0
 19 20  2  0
 20 21  1  0
 21 22  2  0
 22 23  1  0
 14 24  2  0
  5 25  1  0
 25 26  1  0
 26 27  1  0
 27 28  1  0
 28  5  1  0
 24  9  1  0
 23 19  1  0
M  END
>  <original ID>  (16) 
FQMRSNBGXSZBOV-HXUWFJFHSA-N

>  <generation_date>  (16) 
None

>  <alias>  (16) 
None

>  <original SMILES>  (16) 
CC(C)O[C@]1(C(=O)Nc2ccc(Cl)c(C(=O)NCc3cccs3)c2)CCOC1

>  <HIPPO ID>  (16) 
17135

>  <tags>  (16) 
[]

>  <ref_pdb>  (16) 
c0270a

>  <method>  (16) 
None

>  <ref_url>  (16) 
None

>  <inchikey>  (16) 
FQMRSNBGXSZBOV-HXUWFJFHSA-N

>  <submitter_email>  (16) 
None

>  <ref_mols>  (16) 
c0692a,c0892a

>  <submitter_name>  (16) 
None

$$$$
YXTXFWCYNAFUOU-UHFFFAOYSA-N
     RDKit          3D

 29 31  0  0  0  0  0  0  0  0999 V2000
   14.5455   13.0372   16.8674 O   0  0  0  0  0  0  0  0  0  0  0  0
   14.9612   12.3486   15.9291 C   0  0  0  0  0  0  0  0  0  0  0  0
   16.0162   11.2789   16.1640 C   0  0  0  0  0  0  0  0  0  0  0  0
   15.4454   10.0065   16.4246 O   0  0  0  0  0  0  0  0  0  0  0  0
   16.4381    9.0722   16.8509 C   0  0  0  0  0  0  0  0  0  0  0  0
   16.1318    7.7237   16.2657 C   0  0  0  0  0  0  0  0  0  0  0  0
   17.0686    7.0539   15.4684 C   0  0  0  0  0  0  0  0  0  0  0  0
   16.7509    5.8404   14.8536 C   0  0  0  0  0  0  0  0  0  0  0  0
   15.5026    5.2761   15.0661 C   0  0  0  0  0  0  0  0  0  0  0  0
   15.0404    3.8511   14.2212 Cl  0  0  0  0  0  0  0  0  0  0  0  0
   14.6039    5.8866   15.9334 C   0  0  0  0  0  0  0  0  0  0  0  0
   14.9017    7.1150   16.5138 C   0  0  0  0  0  0  0  0  0  0  0  0
   14.4822   12.6153   14.6835 N   0  0  0  0  0  0  0  0  0  0  0  0
   14.6267   11.9463   13.4663 C   0  0  0  0  0  0  0  0  0  0  0  0
   14.3216   12.6723   12.3258 C   0  0  0  0  0  0  0  0  0  0  0  0
   14.3881   12.0736   11.0741 C   0  0  0  0  0  0  0  0  0  0  0  0
   14.7777   10.7417   10.9276 C   0  0  0  0  0  0  0  0  0  0  0  0
   14.8414   10.0890    9.3432 Cl  0  0  0  0  0  0  0  0  0  0  0  0
   15.0280    9.9893   12.0667 C   0  0  0  0  0  0  0  0  0  0  0  0
   15.2356    8.5268   12.1007 C   0  0  0  0  0  0  0  0  0  0  0  0
   16.0564    8.0739   12.8856 O   0  0  0  0  0  0  0  0  0  0  0  0
   14.4066    7.7404   11.3433 N   0  0  0  0  0  0  0  0  0  0  0  0
   14.2432    6.3316   11.6204 C   0  0  0  0  0  0  0  0  0  0  0  0
   12.8803    6.0673   12.2017 C   0  0  0  0  0  0  0  0  0  0  0  0
   11.8864    5.2743   11.6677 C   0  0  0  0  0  0  0  0  0  0  0  0
   10.7112    5.2265   12.4730 C   0  0  0  0  0  0  0  0  0  0  0  0
   10.8415    5.9718   13.6182 C   0  0  0  0  0  0  0  0  0  0  0  0
   12.3775    6.7005   13.7150 S   0  0  0  0  0  0  0  0  0  0  0  0
   14.9617   10.6040   13.3293 C   0  0  0  0  0  0  0  0  0  0  0  0
  1  2  2  0
  2  3  1  0
  3  4  1  0
  4  5  1  0
  5  6  1  0
  6  7  2  0
  7  8  1  0
  8  9  2  0
  9 10  1  0
  9 11  1  0
 11 12  2  0
  2 13  1  0
 13 14  1  0
 14 15  2  0
 15 16  1  0
 16 17  2  0
 17 18  1  0
 17 19  1  0
 19 20  1  0
 20 21  2  0
 20 22  1  0
 22 23  1  0
 23 24  1  0
 24 25  2  0
 25 26  1  0
 26 27  2  0
 27 28  1  0
 19 29  2  0
 12  6  1  0
 29 14  1  0
 28 24  1  0
M  END
>  <original ID>  (17) 
YXTXFWCYNAFUOU-UHFFFAOYSA-N

>  <generation_date>  (17) 
None

>  <alias>  (17) 
None

>  <original SMILES>  (17) 
O=C(COCc1ccc(Cl)cc1)Nc1ccc(Cl)c(C(=O)NCc2cccs2)c1

>  <HIPPO ID>  (17) 
17294

>  <tags>  (17) 
[]

>  <ref_pdb>  (17) 
c0270a

>  <method>  (17) 
None

>  <ref_url>  (17) 
None

>  <inchikey>  (17) 
YXTXFWCYNAFUOU-UHFFFAOYSA-N

>  <submitter_email>  (17) 
None

>  <ref_mols>  (17) 
c0692a,c0892a

>  <submitter_name>  (17) 
None

$$$$
HZPIOPLTZSFOLI-UHFFFAOYSA-N
     RDKit          3D

 17 18  0  0  0  0  0  0  0  0999 V2000
   21.6018   10.9882   10.6623 C   0  0  0  0  0  0  0  0  0  0  0  0
   20.2161   11.2263   10.4418 O   0  0  0  0  0  0  0  0  0  0  0  0
   19.6957   12.2314   11.2185 C   0  0  0  0  0  0  0  0  0  0  0  0
   20.5136   13.2106   11.7965 C   0  0  0  0  0  0  0  0  0  0  0  0
   19.9697   14.1452   12.6508 C   0  0  0  0  0  0  0  0  0  0  0  0
   18.6063   14.1138   12.9014 C   0  0  0  0  0  0  0  0  0  0  0  0
   17.7530   13.1644   12.2961 C   0  0  0  0  0  0  0  0  0  0  0  0
   16.2988   13.2997   12.6181 C   0  0  0  0  0  0  0  0  0  0  0  0
   18.2892   12.2030   11.4250 C   0  0  0  0  0  0  0  0  0  0  0  0
   17.5483   11.2232   10.7163 N   0  0  0  0  0  0  0  0  0  0  0  0
   16.5235   10.2997   10.9912 C   0  0  0  0  0  0  0  0  0  0  0  0
   15.9723    9.5859    9.9088 C   0  0  0  0  0  0  0  0  0  0  0  0
   15.0394    8.5674   10.0946 C   0  0  0  0  0  0  0  0  0  0  0  0
   14.6494    8.2469   11.3792 C   0  0  0  0  0  0  0  0  0  0  0  0
   13.7874    7.2017   11.5388 O   0  0  0  0  0  0  0  0  0  0  0  0
   15.1107    8.9876   12.4650 C   0  0  0  0  0  0  0  0  0  0  0  0
   16.0274   10.0280   12.2639 C   0  0  0  0  0  0  0  0  0  0  0  0
  1  2  1  0
  2  3  1  0
  3  4  2  0
  4  5  1  0
  5  6  2  0
  6  7  1  0
  7  8  1  0
  7  9  2  0
  9 10  1  0
 10 11  1  0
 11 12  2  0
 12 13  1  0
 13 14  2  0
 14 15  1  0
 14 16  1  0
 16 17  2  0
  9  3  1  0
 17 11  1  0
M  END
>  <original ID>  (18) 
HZPIOPLTZSFOLI-UHFFFAOYSA-N

>  <generation_date>  (18) 
None

>  <alias>  (18) 
None

>  <original SMILES>  (18) 
COc1cccc(C)c1Nc1ccc(O)cc1

>  <HIPPO ID>  (18) 
17853

>  <tags>  (18) 
[]

>  <ref_pdb>  (18) 
c0270a

>  <method>  (18) 
None

>  <ref_url>  (18) 
None

>  <inchikey>  (18) 
HZPIOPLTZSFOLI-UHFFFAOYSA-N

>  <submitter_email>  (18) 
None

>  <ref_mols>  (18) 
c0935a,c1116a

>  <submitter_name>  (18) 
None

$$$$
MAEPLVDGKVPTJD-UHFFFAOYSA-N
     RDKit          3D

 18 19  0  0  0  0  0  0  0  0999 V2000
   22.7169   11.8221   10.0975 C   0  0  0  0  0  0  0  0  0  0  0  0
   21.8726   11.1455   11.0216 O   0  0  0  0  0  0  0  0  0  0  0  0
   20.7204   11.8253   11.2685 C   0  0  0  0  0  0  0  0  0  0  0  0
   19.5599   11.2931   10.7055 C   0  0  0  0  0  0  0  0  0  0  0  0
   18.3002   11.7758   11.0513 C   0  0  0  0  0  0  0  0  0  0  0  0
   17.1609   11.2256   10.4250 N   0  0  0  0  0  0  0  0  0  0  0  0
   16.3052   10.1800   10.8315 C   0  0  0  0  0  0  0  0  0  0  0  0
   15.6905    9.4100    9.8247 C   0  0  0  0  0  0  0  0  0  0  0  0
   14.8390    8.3554   10.1340 C   0  0  0  0  0  0  0  0  0  0  0  0
   14.5830    8.0738   11.4623 C   0  0  0  0  0  0  0  0  0  0  0  0
   13.7420    7.0344   11.7335 O   0  0  0  0  0  0  0  0  0  0  0  0
   15.1235    8.8617   12.4787 C   0  0  0  0  0  0  0  0  0  0  0  0
   15.9684    9.9304   12.1586 C   0  0  0  0  0  0  0  0  0  0  0  0
   18.2286   12.8409   11.9516 C   0  0  0  0  0  0  0  0  0  0  0  0
   19.4021   13.4317   12.4888 C   0  0  0  0  0  0  0  0  0  0  0  0
   19.2638   14.6328   13.3734 C   0  0  0  0  0  0  0  0  0  0  0  0
   20.6594   12.9012   12.1559 C   0  0  0  0  0  0  0  0  0  0  0  0
   22.4483   13.6517   13.0257 I   0  0  0  0  0  0  0  0  0  0  0  0
  1  2  1  0
  2  3  1  0
  3  4  2  0
  4  5  1  0
  5  6  1  0
  6  7  1  0
  7  8  2  0
  8  9  1  0
  9 10  2  0
 10 11  1  0
 10 12  1  0
 12 13  2  0
  5 14  2  0
 14 15  1  0
 15 16  1  0
 15 17  2  0
 17 18  1  0
 17  3  1  0
 13  7  1  0
M  END
>  <original ID>  (19) 
MAEPLVDGKVPTJD-UHFFFAOYSA-N

>  <generation_date>  (19) 
None

>  <alias>  (19) 
None

>  <original SMILES>  (19) 
COc1cc(Nc2ccc(O)cc2)cc(C)c1I

>  <HIPPO ID>  (19) 
17938

>  <tags>  (19) 
[]

>  <ref_pdb>  (19) 
c0270a

>  <method>  (19) 
None

>  <ref_url>  (19) 
None

>  <inchikey>  (19) 
MAEPLVDGKVPTJD-UHFFFAOYSA-N

>  <submitter_email>  (19) 
None

>  <ref_mols>  (19) 
c0935a,c1116a

>  <submitter_name>  (19) 
None

$$$$
IDQCFJLBMOAPEZ-UHFFFAOYSA-N
     RDKit          3D

 19 20  0  0  0  0  0  0  0  0999 V2000
   22.1224   10.8101   10.8884 C   0  0  0  0  0  0  0  0  0  0  0  0
   21.1589   11.6104   10.2352 O   0  0  0  0  0  0  0  0  0  0  0  0
   20.2471   12.1338   11.0883 C   0  0  0  0  0  0  0  0  0  0  0  0
   18.9299   11.6711   10.9287 C   0  0  0  0  0  0  0  0  0  0  0  0
   17.9003   12.2237   11.6762 C   0  0  0  0  0  0  0  0  0  0  0  0
   16.5556   11.8129   11.5686 N   0  0  0  0  0  0  0  0  0  0  0  0
   16.0218   10.5428   11.2652 C   0  0  0  0  0  0  0  0  0  0  0  0
   15.7302   10.1761    9.9518 C   0  0  0  0  0  0  0  0  0  0  0  0
   15.0501    8.9935    9.6619 C   0  0  0  0  0  0  0  0  0  0  0  0
   14.6716    8.1553   10.6969 C   0  0  0  0  0  0  0  0  0  0  0  0
   13.9546    7.0232   10.4459 O   0  0  0  0  0  0  0  0  0  0  0  0
   14.9802    8.4778   12.0125 C   0  0  0  0  0  0  0  0  0  0  0  0
   15.6455    9.6750   12.2961 C   0  0  0  0  0  0  0  0  0  0  0  0
   18.2298   13.2771   12.5497 C   0  0  0  0  0  0  0  0  0  0  0  0
   19.5642   13.7018   12.7684 C   0  0  0  0  0  0  0  0  0  0  0  0
   19.8514   14.6816   13.8695 C   0  0  0  0  0  0  0  0  0  0  0  0
   20.2850   15.9228   13.3634 O   0  0  0  0  0  0  0  0  0  0  0  0
   20.5822   13.1342   12.0069 C   0  0  0  0  0  0  0  0  0  0  0  0
   22.6039   13.7952   12.2518 I   0  0  0  0  0  0  0  0  0  0  0  0
  1  2  1  0
  2  3  1  0
  3  4  2  0
  4  5  1  0
  5  6  1  0
  6  7  1  0
  7  8  2  0
  8  9  1  0
  9 10  2  0
 10 11  1  0
 10 12  1  0
 12 13  2  0
  5 14  2  0
 14 15  1  0
 15 16  1  0
 16 17  1  0
 15 18  2  0
 18 19  1  0
 18  3  1  0
 13  7  1  0
M  END
>  <original ID>  (20) 
IDQCFJLBMOAPEZ-UHFFFAOYSA-N

>  <generation_date>  (20) 
None

>  <alias>  (20) 
None

>  <original SMILES>  (20) 
COc1cc(Nc2ccc(O)cc2)cc(CO)c1I

>  <HIPPO ID>  (20) 
18130

>  <tags>  (20) 
[]

>  <ref_pdb>  (20) 
c0270a

>  <method>  (20) 
None

>  <ref_url>  (20) 
None

>  <inchikey>  (20) 
IDQCFJLBMOAPEZ-UHFFFAOYSA-N

>  <submitter_email>  (20) 
None

>  <ref_mols>  (20) 
c0935a,c1116a

>  <submitter_name>  (20) 
None

$$$$
WPSUQPPYEAGFOL-UHFFFAOYSA-N
     RDKit          3D

 19 20  0  0  0  0  0  0  0  0999 V2000
   21.2559   10.8964   10.6643 C   0  0  0  0  0  0  0  0  0  0  0  0
   19.8289   11.0786   10.6584 O   0  0  0  0  0  0  0  0  0  0  0  0
   19.4635   12.3206   11.1196 C   0  0  0  0  0  0  0  0  0  0  0  0
   20.3904   13.3856   11.0161 C   0  0  0  0  0  0  0  0  0  0  0  0
   20.2244   14.5711   11.7058 C   0  0  0  0  0  0  0  0  0  0  0  0
   19.0753   14.7534   12.4419 C   0  0  0  0  0  0  0  0  0  0  0  0
   18.0730   13.7701   12.4584 C   0  0  0  0  0  0  0  0  0  0  0  0
   16.8179   14.1064   13.2234 C   0  0  0  0  0  0  0  0  0  0  0  0
   18.2541   12.5051   11.8174 C   0  0  0  0  0  0  0  0  0  0  0  0
   17.2428   11.5539   12.0846 N   0  0  0  0  0  0  0  0  0  0  0  0
   16.4780   10.4903   11.5739 C   0  0  0  0  0  0  0  0  0  0  0  0
   16.4035   10.0966   10.2529 C   0  0  0  0  0  0  0  0  0  0  0  0
   15.5100    9.0912    9.8656 C   0  0  0  0  0  0  0  0  0  0  0  0
   15.3068    8.8107    8.5768 F   0  0  0  0  0  0  0  0  0  0  0  0
   14.7787    8.3679   10.7952 C   0  0  0  0  0  0  0  0  0  0  0  0
   13.9330    7.3695   10.4002 O   0  0  0  0  0  0  0  0  0  0  0  0
   14.8803    8.6822   12.1325 C   0  0  0  0  0  0  0  0  0  0  0  0
   15.6739    9.7686   12.4985 C   0  0  0  0  0  0  0  0  0  0  0  0
   15.6439   10.2639   14.1592 Cl  0  0  0  0  0  0  0  0  0  0  0  0
  1  2  1  0
  2  3  1  0
  3  4  2  0
  4  5  1  0
  5  6  2  0
  6  7  1  0
  7  8  1  0
  7  9  2  0
  9 10  1  0
 10 11  1  0
 11 12  2  0
 12 13  1  0
 13 14  1  0
 13 15  2  0
 15 16  1  0
 15 17  1  0
 17 18  2  0
 18 19  1  0
  9  3  1  0
 18 11  1  0
M  END
>  <original ID>  (21) 
WPSUQPPYEAGFOL-UHFFFAOYSA-N

>  <generation_date>  (21) 
None

>  <alias>  (21) 
None

>  <original SMILES>  (21) 
COc1cccc(C)c1Nc1cc(F)c(O)cc1Cl

>  <HIPPO ID>  (21) 
18393

>  <tags>  (21) 
[]

>  <ref_pdb>  (21) 
c0270a

>  <method>  (21) 
None

>  <ref_url>  (21) 
None

>  <inchikey>  (21) 
WPSUQPPYEAGFOL-UHFFFAOYSA-N

>  <submitter_email>  (21) 
None

>  <ref_mols>  (21) 
c0935a,c1116a

>  <submitter_name>  (21) 
None

$$$$
ZBWNJVLARWVCLW-UHFFFAOYSA-N
     RDKit          3D

 19 20  0  0  0  0  0  0  0  0999 V2000
   19.5419   10.7150   10.4037 C   0  0  0  0  0  0  0  0  0  0  0  0
   19.0993   12.0226   10.2271 O   0  0  0  0  0  0  0  0  0  0  0  0
   18.8777   12.6165   11.4248 C   0  0  0  0  0  0  0  0  0  0  0  0
   19.9375   13.4285   11.8422 C   0  0  0  0  0  0  0  0  0  0  0  0
   19.7274   14.3229   12.8626 C   0  0  0  0  0  0  0  0  0  0  0  0
   18.4766   14.3643   13.4656 C   0  0  0  0  0  0  0  0  0  0  0  0
   17.4375   13.4629   13.1248 C   0  0  0  0  0  0  0  0  0  0  0  0
   16.2107   13.5387   13.9898 C   0  0  0  0  0  0  0  0  0  0  0  0
   17.5974   12.5832   12.0339 C   0  0  0  0  0  0  0  0  0  0  0  0
   16.5367   11.8688   11.4018 N   0  0  0  0  0  0  0  0  0  0  0  0
   15.2417   12.5562   11.4332 C   0  0  0  0  0  0  0  0  0  0  0  0
   16.1961   10.4804   11.4297 C   0  0  0  0  0  0  0  0  0  0  0  0
   15.8806    9.8384   10.2186 C   0  0  0  0  0  0  0  0  0  0  0  0
   15.1531    8.6512   10.2040 C   0  0  0  0  0  0  0  0  0  0  0  0
   14.7246    8.0992   11.4040 C   0  0  0  0  0  0  0  0  0  0  0  0
   13.8884    7.0237   11.3021 O   0  0  0  0  0  0  0  0  0  0  0  0
   15.0801    8.6741   12.6321 C   0  0  0  0  0  0  0  0  0  0  0  0
   14.5912    8.1575   13.9508 C   0  0  0  0  0  0  0  0  0  0  0  0
   15.8350    9.8585   12.6288 C   0  0  0  0  0  0  0  0  0  0  0  0
  1  2  1  0
  2  3  1  0
  3  4  2  0
  4  5  1  0
  5  6  2  0
  6  7  1  0
  7  8  1  0
  7  9  2  0
  9 10  1  0
 10 11  1  0
 10 12  1  0
 12 13  2  0
 13 14  1  0
 14 15  2  0
 15 16  1  0
 15 17  1  0
 17 18  1  0
 17 19  2  0
  9  3  1  0
 19 12  1  0
M  END
>  <original ID>  (22) 
ZBWNJVLARWVCLW-UHFFFAOYSA-N

>  <generation_date>  (22) 
None

>  <alias>  (22) 
None

>  <original SMILES>  (22) 
COc1cccc(C)c1N(C)c1ccc(O)c(C)c1

>  <HIPPO ID>  (22) 
18421

>  <tags>  (22) 
[]

>  <ref_pdb>  (22) 
c0270a

>  <method>  (22) 
None

>  <ref_url>  (22) 
None

>  <inchikey>  (22) 
ZBWNJVLARWVCLW-UHFFFAOYSA-N

>  <submitter_email>  (22) 
None

>  <ref_mols>  (22) 
c0935a,c1116a

>  <submitter_name>  (22) 
None

$$$$
UEUGBDULVADOCJ-UHFFFAOYSA-N
     RDKit          3D

 19 20  0  0  0  0  0  0  0  0999 V2000
   13.2164    6.3978   11.7131 C   0  0  0  0  0  0  0  0  0  0  0  0
   13.7643    7.1651   10.6558 O   0  0  0  0  0  0  0  0  0  0  0  0
   14.5276    8.2539   10.9673 C   0  0  0  0  0  0  0  0  0  0  0  0
   14.8553    9.0489    9.8764 C   0  0  0  0  0  0  0  0  0  0  0  0
   15.5069   10.2684   10.0669 C   0  0  0  0  0  0  0  0  0  0  0  0
   15.8893   10.7144   11.3417 C   0  0  0  0  0  0  0  0  0  0  0  0
   16.5300   11.9760   11.4967 N   0  0  0  0  0  0  0  0  0  0  0  0
   17.9176   12.3050   11.6502 C   0  0  0  0  0  0  0  0  0  0  0  0
   18.9521   11.6502   10.9736 C   0  0  0  0  0  0  0  0  0  0  0  0
   18.6766   10.4820   10.1240 C   0  0  0  0  0  0  0  0  0  0  0  0
   20.2947   12.0536   11.0988 C   0  0  0  0  0  0  0  0  0  0  0  0
   20.6270   13.1334   11.8935 C   0  0  0  0  0  0  0  0  0  0  0  0
   19.6205   13.8109   12.5706 C   0  0  0  0  0  0  0  0  0  0  0  0
   18.2798   13.4078   12.4544 C   0  0  0  0  0  0  0  0  0  0  0  0
   17.2399   13.9882   13.1402 O   0  0  0  0  0  0  0  0  0  0  0  0
   17.5361   15.1995   13.8245 C   0  0  0  0  0  0  0  0  0  0  0  0
   15.5440    9.9097   12.4392 C   0  0  0  0  0  0  0  0  0  0  0  0
   15.7933   10.4623   14.1202 S   0  0  0  0  0  0  0  0  0  0  0  0
   14.8986    8.6719   12.2459 C   0  0  0  0  0  0  0  0  0  0  0  0
  1  2  1  0
  2  3  1  0
  3  4  2  0
  4  5  1  0
  5  6  2  0
  6  7  1  0
  7  8  1  0
  8  9  2  0
  9 10  1  0
  9 11  1  0
 11 12  2  0
 12 13  1  0
 13 14  2  0
 14 15  1  0
 15 16  1  0
  6 17  1  0
 17 18  1  0
 17 19  2  0
 19  3  1  0
 14  8  1  0
M  END
>  <original ID>  (23) 
UEUGBDULVADOCJ-UHFFFAOYSA-N

>  <generation_date>  (23) 
None

>  <alias>  (23) 
None

>  <original SMILES>  (23) 
COc1ccc(Nc2c(C)cccc2OC)c(S)c1

>  <HIPPO ID>  (23) 
18439

>  <tags>  (23) 
[]

>  <ref_pdb>  (23) 
c0270a

>  <method>  (23) 
None

>  <ref_url>  (23) 
None

>  <inchikey>  (23) 
UEUGBDULVADOCJ-UHFFFAOYSA-N

>  <submitter_email>  (23) 
None

>  <ref_mols>  (23) 
c0935a,c1116a

>  <submitter_name>  (23) 
None

$$$$
ZJBOJTNRGRERAP-UHFFFAOYSA-N
     RDKit          3D

 19 20  0  0  0  0  0  0  0  0999 V2000
   13.2078    6.3941   11.9866 C   0  0  0  0  0  0  0  0  0  0  0  0
   13.8421    7.2166   11.0329 O   0  0  0  0  0  0  0  0  0  0  0  0
   14.5796    8.3174   11.3514 C   0  0  0  0  0  0  0  0  0  0  0  0
   14.9342    9.0060   10.1817 C   0  0  0  0  0  0  0  0  0  0  0  0
   15.5833   10.2415   10.2299 C   0  0  0  0  0  0  0  0  0  0  0  0
   15.9831   10.7972   11.4452 C   0  0  0  0  0  0  0  0  0  0  0  0
   16.6367   12.0514   11.5233 N   0  0  0  0  0  0  0  0  0  0  0  0
   18.0320   12.3487   11.6757 C   0  0  0  0  0  0  0  0  0  0  0  0
   19.0475   11.6737   10.9893 C   0  0  0  0  0  0  0  0  0  0  0  0
   18.7340   10.5193   10.1331 C   0  0  0  0  0  0  0  0  0  0  0  0
   20.3973   12.0476   11.1106 C   0  0  0  0  0  0  0  0  0  0  0  0
   20.7531   13.1200   11.9065 C   0  0  0  0  0  0  0  0  0  0  0  0
   19.7632   13.8224   12.5849 C   0  0  0  0  0  0  0  0  0  0  0  0
   18.4148   13.4496   12.4713 C   0  0  0  0  0  0  0  0  0  0  0  0
   17.3838   14.0591   13.1463 O   0  0  0  0  0  0  0  0  0  0  0  0
   17.6998   15.2819   13.7993 C   0  0  0  0  0  0  0  0  0  0  0  0
   15.6644   10.1046   12.6098 C   0  0  0  0  0  0  0  0  0  0  0  0
   14.9443    8.8901   12.5787 C   0  0  0  0  0  0  0  0  0  0  0  0
   14.4356    8.2241   14.5073 I   0  0  0  0  0  0  0  0  0  0  0  0
  1  2  1  0
  2  3  1  0
  3  4  2  0
  4  5  1  0
  5  6  2  0
  6  7  1  0
  7  8  1  0
  8  9  2  0
  9 10  1  0
  9 11  1  0
 11 12  2  0
 12 13  1  0
 13 14  2  0
 14 15  1  0
 15 16  1  0
  6 17  1  0
 17 18  2  0
 18 19  1  0
 18  3  1  0
 14  8  1  0
M  END
>  <original ID>  (24) 
ZJBOJTNRGRERAP-UHFFFAOYSA-N

>  <generation_date>  (24) 
None

>  <alias>  (24) 
None

>  <original SMILES>  (24) 
COc1ccc(Nc2c(C)cccc2OC)cc1I

>  <HIPPO ID>  (24) 
18446

>  <tags>  (24) 
[]

>  <ref_pdb>  (24) 
c0270a

>  <method>  (24) 
None

>  <ref_url>  (24) 
None

>  <inchikey>  (24) 
ZJBOJTNRGRERAP-UHFFFAOYSA-N

>  <submitter_email>  (24) 
None

>  <ref_mols>  (24) 
c0935a,c1116a

>  <submitter_name>  (24) 
None

$$$$
SRBOVJHAYOONFU-UHFFFAOYSA-N
     RDKit          3D

 19 20  0  0  0  0  0  0  0  0999 V2000
   21.4423   10.9894   10.5885 C   0  0  0  0  0  0  0  0  0  0  0  0
   20.0394   11.2159   10.5013 O   0  0  0  0  0  0  0  0  0  0  0  0
   19.5845   12.2457   11.2873 C   0  0  0  0  0  0  0  0  0  0  0  0
   20.4612   13.1872   11.8461 C   0  0  0  0  0  0  0  0  0  0  0  0
   19.9795   14.1723   12.6807 C   0  0  0  0  0  0  0  0  0  0  0  0
   18.6182   14.2332   12.9294 C   0  0  0  0  0  0  0  0  0  0  0  0
   17.7084   13.3178   12.3542 C   0  0  0  0  0  0  0  0  0  0  0  0
   16.2663   13.5757   12.6556 C   0  0  0  0  0  0  0  0  0  0  0  0
   18.1799   12.2904   11.5213 C   0  0  0  0  0  0  0  0  0  0  0  0
   17.3682   11.3292   10.8606 N   0  0  0  0  0  0  0  0  0  0  0  0
   16.3577   10.3821   11.1502 C   0  0  0  0  0  0  0  0  0  0  0  0
   15.7172    9.8241   10.0184 C   0  0  0  0  0  0  0  0  0  0  0  0
   14.7709    8.7895   10.0985 C   0  0  0  0  0  0  0  0  0  0  0  0
   13.9072    8.4946    8.9178 C   0  0  0  0  0  0  0  0  0  0  0  0
   14.5419    8.2141   11.3321 C   0  0  0  0  0  0  0  0  0  0  0  0
   13.7261    7.1360   11.5117 O   0  0  0  0  0  0  0  0  0  0  0  0
   15.0559    8.8127   12.4690 C   0  0  0  0  0  0  0  0  0  0  0  0
   15.9041    9.9402   12.3978 C   0  0  0  0  0  0  0  0  0  0  0  0
   16.2060   10.5701   13.7137 C   0  0  0  0  0  0  0  0  0  0  0  0
  1  2  1  0
  2  3  1  0
  3  4  2  0
  4  5  1  0
  5  6  2  0
  6  7  1  0
  7  8  1  0
  7  9  2  0
  9 10  1  0
 10 11  1  0
 11 12  2  0
 12 13  1  0
 13 14  1  0
 13 15  2  0
 15 16  1  0
 15 17  1  0
 17 18  2  0
 18 19  1  0
  9  3  1  0
 18 11  1  0
M  END
>  <original ID>  (25) 
SRBOVJHAYOONFU-UHFFFAOYSA-N

>  <generation_date>  (25) 
None

>  <alias>  (25) 
None

>  <original SMILES>  (25) 
COc1cccc(C)c1Nc1cc(C)c(O)cc1C

>  <HIPPO ID>  (25) 
18455

>  <tags>  (25) 
[]

>  <ref_pdb>  (25) 
c0270a

>  <method>  (25) 
None

>  <ref_url>  (25) 
None

>  <inchikey>  (25) 
SRBOVJHAYOONFU-UHFFFAOYSA-N

>  <submitter_email>  (25) 
None

>  <ref_mols>  (25) 
c0935a,c1116a

>  <submitter_name>  (25) 
None

$$$$
VBUPNYALPPLTSH-UHFFFAOYSA-N
     RDKit          3D

 20 21  0  0  0  0  0  0  0  0999 V2000
   12.7578    6.3051   11.7097 C   0  0  0  0  0  0  0  0  0  0  0  0
   14.0371    6.5295   12.3003 O   0  0  0  0  0  0  0  0  0  0  0  0
   14.6000    7.7456   12.0617 C   0  0  0  0  0  0  0  0  0  0  0  0
   14.7717    8.2414   10.7912 C   0  0  0  0  0  0  0  0  0  0  0  0
   15.2972    9.5242   10.6379 C   0  0  0  0  0  0  0  0  0  0  0  0
   15.1110   10.1980    8.9111 Br  0  0  0  0  0  0  0  0  0  0  0  0
   15.7899   10.3096   11.7064 C   0  0  0  0  0  0  0  0  0  0  0  0
   16.3379   11.6193   11.4875 N   0  0  0  0  0  0  0  0  0  0  0  0
   17.6861   12.0917   11.7117 C   0  0  0  0  0  0  0  0  0  0  0  0
   18.7698   11.5425   11.0094 C   0  0  0  0  0  0  0  0  0  0  0  0
   18.5497   10.4025   10.1094 C   0  0  0  0  0  0  0  0  0  0  0  0
   20.0779   12.0471   11.1199 C   0  0  0  0  0  0  0  0  0  0  0  0
   20.3247   13.1486   11.9125 C   0  0  0  0  0  0  0  0  0  0  0  0
   19.2636   13.7482   12.5829 C   0  0  0  0  0  0  0  0  0  0  0  0
   17.9535   13.2374   12.4869 C   0  0  0  0  0  0  0  0  0  0  0  0
   16.8804   13.7945   13.1247 O   0  0  0  0  0  0  0  0  0  0  0  0
   17.1217   14.9005   13.9775 C   0  0  0  0  0  0  0  0  0  0  0  0
   15.6048    9.7715   12.9794 C   0  0  0  0  0  0  0  0  0  0  0  0
   15.9013   10.8054   14.5371 Br  0  0  0  0  0  0  0  0  0  0  0  0
   15.0328    8.4971   13.1543 C   0  0  0  0  0  0  0  0  0  0  0  0
  1  2  1  0
  2  3  1  0
  3  4  2  0
  4  5  1  0
  5  6  1  0
  5  7  2  0
  7  8  1  0
  8  9  1  0
  9 10  2  0
 10 11  1  0
 10 12  1  0
 12 13  2  0
 13 14  1  0
 14 15  2  0
 15 16  1  0
 16 17  1  0
  7 18  1  0
 18 19  1  0
 18 20  2  0
 20  3  1  0
 15  9  1  0
M  END
>  <original ID>  (26) 
VBUPNYALPPLTSH-UHFFFAOYSA-N

>  <generation_date>  (26) 
None

>  <alias>  (26) 
None

>  <original SMILES>  (26) 
COc1cc(Br)c(Nc2c(C)cccc2OC)c(Br)c1

>  <HIPPO ID>  (26) 
19358

>  <tags>  (26) 
[]

>  <ref_pdb>  (26) 
c0270a

>  <method>  (26) 
None

>  <ref_url>  (26) 
None

>  <inchikey>  (26) 
VBUPNYALPPLTSH-UHFFFAOYSA-N

>  <submitter_email>  (26) 
None

>  <ref_mols>  (26) 
c0935a,c1116a

>  <submitter_name>  (26) 
None

$$$$
SSLNNUNVDIDKEK-UHFFFAOYSA-N
     RDKit          3D

 20 21  0  0  0  0  0  0  0  0999 V2000
   13.3489    6.6796   10.2321 C   0  0  0  0  0  0  0  0  0  0  0  0
   13.9564    7.1658   11.4175 O   0  0  0  0  0  0  0  0  0  0  0  0
   14.6439    8.3421   11.3189 C   0  0  0  0  0  0  0  0  0  0  0  0
   14.9194    9.0330   10.1483 C   0  0  0  0  0  0  0  0  0  0  0  0
   15.5090   10.2962   10.2259 C   0  0  0  0  0  0  0  0  0  0  0  0
   15.9106   10.8611   11.4521 C   0  0  0  0  0  0  0  0  0  0  0  0
   16.5984   12.1085   11.4691 N   0  0  0  0  0  0  0  0  0  0  0  0
   18.0072   12.3326   11.6324 C   0  0  0  0  0  0  0  0  0  0  0  0
   18.9780   11.5814   10.9621 C   0  0  0  0  0  0  0  0  0  0  0  0
   18.6069   10.4501   10.1016 C   0  0  0  0  0  0  0  0  0  0  0  0
   20.3486   11.8421   11.1040 C   0  0  0  0  0  0  0  0  0  0  0  0
   20.7697   12.8674   11.9227 C   0  0  0  0  0  0  0  0  0  0  0  0
   22.6201   13.1087   12.1711 Br  0  0  0  0  0  0  0  0  0  0  0  0
   19.8353   13.6621   12.5789 C   0  0  0  0  0  0  0  0  0  0  0  0
   18.4607   13.4014   12.4342 C   0  0  0  0  0  0  0  0  0  0  0  0
   17.4651   14.0809   13.0952 O   0  0  0  0  0  0  0  0  0  0  0  0
   17.8531   15.2809   13.7530 C   0  0  0  0  0  0  0  0  0  0  0  0
   15.6054   10.1639   12.6277 C   0  0  0  0  0  0  0  0  0  0  0  0
   15.8851   10.8392   14.2540 S   0  0  0  0  0  0  0  0  0  0  0  0
   14.9986    8.9044   12.5486 C   0  0  0  0  0  0  0  0  0  0  0  0
  1  2  1  0
  2  3  1  0
  3  4  2  0
  4  5  1  0
  5  6  2  0
  6  7  1  0
  7  8  1  0
  8  9  2  0
  9 10  1  0
  9 11  1  0
 11 12  2  0
 12 13  1  0
 12 14  1  0
 14 15  2  0
 15 16  1  0
 16 17  1  0
  6 18  1  0
 18 19  1  0
 18 20  2  0
 20  3  1  0
 15  8  1  0
M  END
>  <original ID>  (27) 
SSLNNUNVDIDKEK-UHFFFAOYSA-N

>  <generation_date>  (27) 
None

>  <alias>  (27) 
None

>  <original SMILES>  (27) 
COc1ccc(Nc2c(C)cc(Br)cc2OC)c(S)c1

>  <HIPPO ID>  (27) 
19372

>  <tags>  (27) 
[]

>  <ref_pdb>  (27) 
c0270a

>  <method>  (27) 
None

>  <ref_url>  (27) 
None

>  <inchikey>  (27) 
SSLNNUNVDIDKEK-UHFFFAOYSA-N

>  <submitter_email>  (27) 
None

>  <ref_mols>  (27) 
c0935a,c1116a

>  <submitter_name>  (27) 
None

$$$$
SBQLHJIVCSGTFT-UHFFFAOYSA-N
     RDKit          3D

 20 21  0  0  0  0  0  0  0  0999 V2000
   18.2029   15.5776   13.1261 C   0  0  0  0  0  0  0  0  0  0  0  0
   17.8203   14.2033   13.1278 O   0  0  0  0  0  0  0  0  0  0  0  0
   18.6534   13.3717   12.4171 C   0  0  0  0  0  0  0  0  0  0  0  0
   20.0519   13.5547   12.5415 C   0  0  0  0  0  0  0  0  0  0  0  0
   20.9374   12.7265   11.8770 C   0  0  0  0  0  0  0  0  0  0  0  0
   22.7974   12.8955   12.0862 Br  0  0  0  0  0  0  0  0  0  0  0  0
   20.4449   11.7328   11.0701 C   0  0  0  0  0  0  0  0  0  0  0  0
   19.0539   11.5289   10.9718 C   0  0  0  0  0  0  0  0  0  0  0  0
   18.6458   10.4308   10.0846 C   0  0  0  0  0  0  0  0  0  0  0  0
   18.0977   12.2965   11.6678 C   0  0  0  0  0  0  0  0  0  0  0  0
   16.6998   12.0007   11.5379 N   0  0  0  0  0  0  0  0  0  0  0  0
   15.7518   12.8999   12.1837 C   0  0  0  0  0  0  0  0  0  0  0  0
   16.0408   10.7359   11.3770 C   0  0  0  0  0  0  0  0  0  0  0  0
   15.5551   10.3258   10.1209 C   0  0  0  0  0  0  0  0  0  0  0  0
   14.9048    9.1067    9.9413 C   0  0  0  0  0  0  0  0  0  0  0  0
   14.6297    8.3228   11.0506 C   0  0  0  0  0  0  0  0  0  0  0  0
   13.9297    7.1599   10.8895 O   0  0  0  0  0  0  0  0  0  0  0  0
   14.9916    8.7509   12.3339 C   0  0  0  0  0  0  0  0  0  0  0  0
   14.5877    8.0077   13.5702 C   0  0  0  0  0  0  0  0  0  0  0  0
   15.7358    9.9351   12.4804 C   0  0  0  0  0  0  0  0  0  0  0  0
  1  2  1  0
  2  3  1  0
  3  4  2  0
  4  5  1  0
  5  6  1  0
  5  7  2  0
  7  8  1  0
  8  9  1  0
  8 10  2  0
 10 11  1  0
 11 12  1  0
 11 13  1  0
 13 14  2  0
 14 15  1  0
 15 16  2  0
 16 17  1  0
 16 18  1  0
 18 19  1  0
 18 20  2  0
 10  3  1  0
 20 13  1  0
M  END
>  <original ID>  (28) 
SBQLHJIVCSGTFT-UHFFFAOYSA-N

>  <generation_date>  (28) 
None

>  <alias>  (28) 
None

>  <original SMILES>  (28) 
COc1cc(Br)cc(C)c1N(C)c1ccc(O)c(C)c1

>  <HIPPO ID>  (28) 
19394

>  <tags>  (28) 
[]

>  <ref_pdb>  (28) 
c0270a

>  <method>  (28) 
None

>  <ref_url>  (28) 
None

>  <inchikey>  (28) 
SBQLHJIVCSGTFT-UHFFFAOYSA-N

>  <submitter_email>  (28) 
None

>  <ref_mols>  (28) 
c0935a,c1116a

>  <submitter_name>  (28) 
None

$$$$
AIVGODJHHZWTHT-UHFFFAOYSA-N
     RDKit          3D

 21 22  0  0  0  0  0  0  0  0999 V2000
   22.5240   11.6462   10.0680 C   0  0  0  0  0  0  0  0  0  0  0  0
   21.5377   11.0023   10.8694 O   0  0  0  0  0  0  0  0  0  0  0  0
   20.5498   11.8454   11.2823 C   0  0  0  0  0  0  0  0  0  0  0  0
   19.2456   11.4666   10.9096 C   0  0  0  0  0  0  0  0  0  0  0  0
   18.1456   12.1691   11.3850 C   0  0  0  0  0  0  0  0  0  0  0  0
   16.8084   11.7943   11.1030 N   0  0  0  0  0  0  0  0  0  0  0  0
   16.2079   10.5172   11.1871 C   0  0  0  0  0  0  0  0  0  0  0  0
   15.9605    9.7926   10.0152 C   0  0  0  0  0  0  0  0  0  0  0  0
   15.1892    8.6253   10.0243 C   0  0  0  0  0  0  0  0  0  0  0  0
   14.6929    8.1315   11.2181 C   0  0  0  0  0  0  0  0  0  0  0  0
   13.8904    7.0325   11.1747 O   0  0  0  0  0  0  0  0  0  0  0  0
   14.9477    8.7918   12.4087 C   0  0  0  0  0  0  0  0  0  0  0  0
   15.6655    9.9977   12.3727 C   0  0  0  0  0  0  0  0  0  0  0  0
   15.6975   10.7741   13.5980 N   0  0  0  0  0  4  0  0  0  0  0  0
   14.6344   10.8676   14.2266 O   0  0  0  0  0  0  0  0  0  0  0  0
   16.7682   11.2799   13.9497 O   0  0  0  0  0  1  0  0  0  0  0  0
   18.3854   13.3138   12.1659 C   0  0  0  0  0  0  0  0  0  0  0  0
   19.6814   13.7034   12.5594 C   0  0  0  0  0  0  0  0  0  0  0  0
   19.8365   14.9035   13.4483 C   0  0  0  0  0  0  0  0  0  0  0  0
   20.7729   12.9320   12.1445 C   0  0  0  0  0  0  0  0  0  0  0  0
   22.7054   13.3357   12.9620 I   0  0  0  0  0  0  0  0  0  0  0  0
  1  2  1  0
  2  3  1  0
  3  4  2  0
  4  5  1  0
  5  6  1  0
  6  7  1  0
  7  8  2  0
  8  9  1  0
  9 10  2  0
 10 11  1  0
 10 12  1  0
 12 13  2  0
 13 14  1  0
 14 15  2  0
 14 16  1  0
  5 17  2  0
 17 18  1  0
 18 19  1  0
 18 20  2  0
 20 21  1  0
 20  3  1  0
 13  7  1  0
M  CHG  2  14   1  16  -1
M  END
>  <original ID>  (29) 
AIVGODJHHZWTHT-UHFFFAOYSA-N

>  <generation_date>  (29) 
None

>  <alias>  (29) 
None

>  <original SMILES>  (29) 
COc1cc(Nc2ccc(O)cc2[N+](=O)[O-])cc(C)c1I

>  <HIPPO ID>  (29) 
19457

>  <tags>  (29) 
[]

>  <ref_pdb>  (29) 
c0270a

>  <method>  (29) 
None

>  <ref_url>  (29) 
None

>  <inchikey>  (29) 
AIVGODJHHZWTHT-UHFFFAOYSA-N

>  <submitter_email>  (29) 
None

>  <ref_mols>  (29) 
c0935a,c1116a

>  <submitter_name>  (29) 
None

$$$$
MBOAGEKVXURUIF-UHFFFAOYSA-N
     RDKit          3D

 21 23  0  0  0  0  0  0  0  0999 V2000
   21.4532   10.8760   10.5224 C   0  0  0  0  0  0  0  0  0  0  0  0
   20.0602   11.1550   10.4321 O   0  0  0  0  0  0  0  0  0  0  0  0
   19.6588   12.1963   11.2307 C   0  0  0  0  0  0  0  0  0  0  0  0
   20.6004   13.1178   11.7401 C   0  0  0  0  0  0  0  0  0  0  0  0
   20.2105   14.1162   12.5997 C   0  0  0  0  0  0  0  0  0  0  0  0
   18.8721   14.1870   12.9074 C   0  0  0  0  0  0  0  0  0  0  0  0
   17.9023   13.2969   12.3826 C   0  0  0  0  0  0  0  0  0  0  0  0
   18.2647   12.2742   11.5187 C   0  0  0  0  0  0  0  0  0  0  0  0
   17.3861   11.3671   10.8781 N   0  0  0  0  0  0  0  0  0  0  0  0
   16.3728   10.4243   11.1814 C   0  0  0  0  0  0  0  0  0  0  0  0
   15.7216    9.8683   10.0526 C   0  0  0  0  0  0  0  0  0  0  0  0
   14.7881    8.8248   10.1393 C   0  0  0  0  0  0  0  0  0  0  0  0
   13.9428    8.4623    8.9643 C   0  0  0  0  0  0  0  0  0  0  0  0
   14.5574    8.2500   11.3712 C   0  0  0  0  0  0  0  0  0  0  0  0
   13.7272    7.1703   11.4606 O   0  0  0  0  0  0  0  0  0  0  0  0
   15.0775    8.8443   12.5080 C   0  0  0  0  0  0  0  0  0  0  0  0
   15.9278    9.9738   12.4306 C   0  0  0  0  0  0  0  0  0  0  0  0
   16.2432   10.5857   13.7518 C   0  0  0  0  0  0  0  0  0  0  0  0
   16.5507   13.7786   12.8051 C   0  0  0  0  0  0  0  0  0  0  0  0
   16.8864   14.6414   14.0279 C   0  0  0  0  0  0  0  0  0  0  0  0
   18.2606   15.2475   13.7611 C   0  0  0  0  0  0  0  0  0  0  0  0
  1  2  1  0
  2  3  1  0
  3  4  2  0
  4  5  1  0
  5  6  2  0
  6  7  1  0
  7  8  2  0
  8  9  1  0
  9 10  1  0
 10 11  2  0
 11 12  1  0
 12 13  1  0
 12 14  2  0
 14 15  1  0
 14 16  1  0
 16 17  2  0
 17 18  1  0
  7 19  1  0
 19 20  1  0
 20 21  1  0
  8  3  1  0
 17 10  1  0
 21  6  1  0
M  END
>  <original ID>  (30) 
MBOAGEKVXURUIF-UHFFFAOYSA-N

>  <generation_date>  (30) 
None

>  <alias>  (30) 
None

>  <original SMILES>  (30) 
COc1ccc2c(c1Nc1cc(C)c(O)cc1C)CCC2

>  <HIPPO ID>  (30) 
19621

>  <tags>  (30) 
[]

>  <ref_pdb>  (30) 
c0270a

>  <method>  (30) 
None

>  <ref_url>  (30) 
None

>  <inchikey>  (30) 
MBOAGEKVXURUIF-UHFFFAOYSA-N

>  <submitter_email>  (30) 
None

>  <ref_mols>  (30) 
c0935a,c1116a

>  <submitter_name>  (30) 
None

$$$$
VPKNPXSAOCBEPV-UHFFFAOYSA-N
     RDKit          3D

 21 22  0  0  0  0  0  0  0  0999 V2000
   13.3948    6.4640   10.2829 C   0  0  0  0  0  0  0  0  0  0  0  0
   13.8625    7.0780   11.4788 O   0  0  0  0  0  0  0  0  0  0  0  0
   14.5953    8.2284   11.3500 C   0  0  0  0  0  0  0  0  0  0  0  0
   14.8444    8.8567   10.1382 C   0  0  0  0  0  0  0  0  0  0  0  0
   15.4696   10.1029   10.1160 C   0  0  0  0  0  0  0  0  0  0  0  0
   15.4411   10.6918    8.8870 O   0  0  0  0  0  0  0  0  0  0  0  0
   15.9840   10.7103   11.2792 C   0  0  0  0  0  0  0  0  0  0  0  0
   16.6304   11.9786   11.3001 N   0  0  0  0  0  0  0  0  0  0  0  0
   18.0142   12.2656   11.5609 C   0  0  0  0  0  0  0  0  0  0  0  0
   19.0450   11.5637   10.9313 C   0  0  0  0  0  0  0  0  0  0  0  0
   18.7499   10.4123   10.0775 C   0  0  0  0  0  0  0  0  0  0  0  0
   20.3966   11.8774   11.1232 C   0  0  0  0  0  0  0  0  0  0  0  0
   20.7417   12.9151   11.9582 C   0  0  0  0  0  0  0  0  0  0  0  0
   22.5697   13.2304   12.2742 Br  0  0  0  0  0  0  0  0  0  0  0  0
   19.7481   13.6658   12.5786 C   0  0  0  0  0  0  0  0  0  0  0  0
   18.3894   13.3498   12.3807 C   0  0  0  0  0  0  0  0  0  0  0  0
   17.3468   13.9989   12.9953 O   0  0  0  0  0  0  0  0  0  0  0  0
   17.6705   15.2035   13.6805 C   0  0  0  0  0  0  0  0  0  0  0  0
   15.7382   10.0677   12.4917 C   0  0  0  0  0  0  0  0  0  0  0  0
   15.0195    8.8669   12.5269 C   0  0  0  0  0  0  0  0  0  0  0  0
   14.5118    8.2271   14.2418 Br  0  0  0  0  0  0  0  0  0  0  0  0
  1  2  1  0
  2  3  1  0
  3  4  2  0
  4  5  1  0
  5  6  1  0
  5  7  2  0
  7  8  1  0
  8  9  1  0
  9 10  2  0
 10 11  1  0
 10 12  1  0
 12 13  2  0
 13 14  1  0
 13 15  1  0
 15 16  2  0
 16 17  1  0
 17 18  1  0
  7 19  1  0
 19 20  2  0
 20 21  1  0
 20  3  1  0
 16  9  1  0
M  END
>  <original ID>  (31) 
VPKNPXSAOCBEPV-UHFFFAOYSA-N

>  <generation_date>  (31) 
None

>  <alias>  (31) 
None

>  <original SMILES>  (31) 
COc1cc(O)c(Nc2c(C)cc(Br)cc2OC)cc1Br

>  <HIPPO ID>  (31) 
19648

>  <tags>  (31) 
[]

>  <ref_pdb>  (31) 
c0270a

>  <method>  (31) 
None

>  <ref_url>  (31) 
None

>  <inchikey>  (31) 
VPKNPXSAOCBEPV-UHFFFAOYSA-N

>  <submitter_email>  (31) 
None

>  <ref_mols>  (31) 
c0935a,c1116a

>  <submitter_name>  (31) 
None

$$$$
VTBKDCHWJAWNAY-UHFFFAOYSA-N
     RDKit          3D

 21 22  0  0  0  0  0  0  0  0999 V2000
   13.0975    6.4248   12.7539 C   0  0  0  0  0  0  0  0  0  0  0  0
   13.5767    6.9853   11.5517 O   0  0  0  0  0  0  0  0  0  0  0  0
   14.4817    8.0060   11.5311 C   0  0  0  0  0  0  0  0  0  0  0  0
   14.8888    8.2529   10.2201 C   0  0  0  0  0  0  0  0  0  0  0  0
   15.7497    9.2977    9.9182 C   0  0  0  0  0  0  0  0  0  0  0  0
   16.0566    9.4270    8.6027 O   0  0  0  0  0  0  0  0  0  0  0  0
   16.2334   10.1540   10.9061 C   0  0  0  0  0  0  0  0  0  0  0  0
   16.9739   11.3050   10.5664 N   0  0  0  0  0  0  0  0  0  0  0  0
   18.2121   11.7260   11.0888 C   0  0  0  0  0  0  0  0  0  0  0  0
   19.3807   11.1094   10.6567 C   0  0  0  0  0  0  0  0  0  0  0  0
   20.6551   11.5264   11.0823 C   0  0  0  0  0  0  0  0  0  0  0  0
   21.8524   10.7896   10.6237 C   0  0  0  0  0  0  0  0  0  0  0  0
   20.7750   12.6368   11.8974 C   0  0  0  0  0  0  0  0  0  0  0  0
   22.6374   13.2402   12.7072 I   0  0  0  0  0  0  0  0  0  0  0  0
   19.6210   13.3746   12.1272 C   0  0  0  0  0  0  0  0  0  0  0  0
   19.7224   14.6922   12.4513 O   0  0  0  0  0  0  0  0  0  0  0  0
   20.1833   15.3964   11.2888 C   0  0  0  0  0  0  0  0  0  0  0  0
   18.3391   12.8959   11.8197 C   0  0  0  0  0  0  0  0  0  0  0  0
   15.8392    9.9125   12.2206 C   0  0  0  0  0  0  0  0  0  0  0  0
   14.9622    8.8548   12.5397 C   0  0  0  0  0  0  0  0  0  0  0  0
   14.4302    8.8197   14.3651 Br  0  0  0  0  0  0  0  0  0  0  0  0
  1  2  1  0
  2  3  1  0
  3  4  2  0
  4  5  1  0
  5  6  1  0
  5  7  2  0
  7  8  1  0
  8  9  1  0
  9 10  2  0
 10 11  1  0
 11 12  1  0
 11 13  2  0
 13 14  1  0
 13 15  1  0
 15 16  1  0
 16 17  1  0
 15 18  2  0
  7 19  1  0
 19 20  2  0
 20 21  1  0
 20  3  1  0
 18  9  1  0
M  END
>  <original ID>  (32) 
VTBKDCHWJAWNAY-UHFFFAOYSA-N

>  <generation_date>  (32) 
None

>  <alias>  (32) 
None

>  <original SMILES>  (32) 
COc1cc(O)c(Nc2cc(C)c(I)c(OC)c2)cc1Br

>  <HIPPO ID>  (32) 
19656

>  <tags>  (32) 
[]

>  <ref_pdb>  (32) 
c0270a

>  <method>  (32) 
None

>  <ref_url>  (32) 
None

>  <inchikey>  (32) 
VTBKDCHWJAWNAY-UHFFFAOYSA-N

>  <submitter_email>  (32) 
None

>  <ref_mols>  (32) 
c0935a,c1116a

>  <submitter_name>  (32) 
None

$$$$
CVVUBHKFNHXDTA-UHFFFAOYSA-N
     RDKit          3D

 21 22  0  0  0  0  0  0  0  0999 V2000
   13.1635    6.0413   11.0762 C   0  0  0  0  0  0  0  0  0  0  0  0
   13.7360    6.7554   12.1775 O   0  0  0  0  0  0  0  0  0  0  0  0
   14.5588    7.8046   11.8791 C   0  0  0  0  0  0  0  0  0  0  0  0
   14.8433    8.2012   10.5988 C   0  0  0  0  0  0  0  0  0  0  0  0
   15.4889    9.4147   10.4157 C   0  0  0  0  0  0  0  0  0  0  0  0
   15.2471   10.1342    8.7347 Br  0  0  0  0  0  0  0  0  0  0  0  0
   16.0444   10.2103   11.4287 C   0  0  0  0  0  0  0  0  0  0  0  0
   16.6876   11.4402   11.0601 N   0  0  0  0  0  0  0  0  0  0  0  0
   18.0020   11.8832   11.3885 C   0  0  0  0  0  0  0  0  0  0  0  0
   19.1098   11.2884   10.7809 C   0  0  0  0  0  0  0  0  0  0  0  0
   20.4206   11.7269   11.0459 C   0  0  0  0  0  0  0  0  0  0  0  0
   21.5627   11.0206   10.3984 C   0  0  0  0  0  0  0  0  0  0  0  0
   20.6210   12.7775   11.9496 C   0  0  0  0  0  0  0  0  0  0  0  0
   22.5973   13.3675   12.5059 I   0  0  0  0  0  0  0  0  0  0  0  0
   19.5190   13.4190   12.5333 C   0  0  0  0  0  0  0  0  0  0  0  0
   19.8247   14.4158   13.4173 O   0  0  0  0  0  0  0  0  0  0  0  0
   18.7748   15.2228   13.9054 C   0  0  0  0  0  0  0  0  0  0  0  0
   18.2144   12.9769   12.2372 C   0  0  0  0  0  0  0  0  0  0  0  0
   15.7221    9.8037   12.7189 C   0  0  0  0  0  0  0  0  0  0  0  0
   15.9755   10.9463   14.2069 Br  0  0  0  0  0  0  0  0  0  0  0  0
   15.0057    8.6027   12.9419 C   0  0  0  0  0  0  0  0  0  0  0  0
  1  2  1  0
  2  3  1  0
  3  4  2  0
  4  5  1  0
  5  6  1  0
  5  7  2  0
  7  8  1  0
  8  9  1  0
  9 10  2  0
 10 11  1  0
 11 12  1  0
 11 13  2  0
 13 14  1  0
 13 15  1  0
 15 16  1  0
 16 17  1  0
 15 18  2  0
  7 19  1  0
 19 20  1  0
 19 21  2  0
 21  3  1  0
 18  9  1  0
M  END
>  <original ID>  (33) 
CVVUBHKFNHXDTA-UHFFFAOYSA-N

>  <generation_date>  (33) 
None

>  <alias>  (33) 
None

>  <original SMILES>  (33) 
COc1cc(Br)c(Nc2cc(C)c(I)c(OC)c2)c(Br)c1

>  <HIPPO ID>  (33) 
19676

>  <tags>  (33) 
[]

>  <ref_pdb>  (33) 
c0270a

>  <method>  (33) 
None

>  <ref_url>  (33) 
None

>  <inchikey>  (33) 
CVVUBHKFNHXDTA-UHFFFAOYSA-N

>  <submitter_email>  (33) 
None

>  <ref_mols>  (33) 
c0935a,c1116a

>  <submitter_name>  (33) 
None

$$$$
UFHMJPJNGMMORH-UHFFFAOYSA-N
     RDKit          3D

 21 22  0  0  0  0  0  0  0  0999 V2000
   22.8043   11.8453   10.1545 C   0  0  0  0  0  0  0  0  0  0  0  0
   21.9975   11.2273   11.1527 O   0  0  0  0  0  0  0  0  0  0  0  0
   20.8375   11.9057   11.3560 C   0  0  0  0  0  0  0  0  0  0  0  0
   19.6930   11.3616   10.7821 C   0  0  0  0  0  0  0  0  0  0  0  0
   18.4321   11.8636   11.0876 C   0  0  0  0  0  0  0  0  0  0  0  0
   17.3122   11.2993   10.4550 N   0  0  0  0  0  0  0  0  0  0  0  0
   16.3925   10.3213   10.8629 C   0  0  0  0  0  0  0  0  0  0  0  0
   15.6674    9.6876    9.8481 C   0  0  0  0  0  0  0  0  0  0  0  0
   14.7311    8.7043   10.1304 C   0  0  0  0  0  0  0  0  0  0  0  0
   13.6785    8.2865    8.8499 Cl  0  0  0  0  0  0  0  0  0  0  0  0
   14.5468    8.2660   11.4360 C   0  0  0  0  0  0  0  0  0  0  0  0
   13.6802    7.2691   11.8058 O   0  0  0  0  0  0  0  0  0  0  0  0
   13.7740    6.0509   11.0769 C   0  0  0  0  0  0  0  0  0  0  0  0
   15.1404    9.0225   12.4589 C   0  0  0  0  0  0  0  0  0  0  0  0
   14.6876    8.7773   14.1104 Cl  0  0  0  0  0  0  0  0  0  0  0  0
   16.0541   10.0471   12.1781 C   0  0  0  0  0  0  0  0  0  0  0  0
   18.3427   12.9734   11.9294 C   0  0  0  0  0  0  0  0  0  0  0  0
   19.5063   13.5989   12.4376 C   0  0  0  0  0  0  0  0  0  0  0  0
   19.3721   14.8881   13.1906 C   0  0  0  0  0  0  0  0  0  0  0  0
   20.7612   13.0206   12.1906 C   0  0  0  0  0  0  0  0  0  0  0  0
   22.5271   13.7797   13.0827 I   0  0  0  0  0  0  0  0  0  0  0  0
  1  2  1  0
  2  3  1  0
  3  4  2  0
  4  5  1  0
  5  6  1  0
  6  7  1  0
  7  8  2  0
  8  9  1  0
  9 10  1  0
  9 11  2  0
 11 12  1  0
 12 13  1  0
 11 14  1  0
 14 15  1  0
 14 16  2  0
  5 17  2  0
 17 18  1  0
 18 19  1  0
 18 20  2  0
 20 21  1  0
 20  3  1  0
 16  7  1  0
M  END
>  <original ID>  (34) 
UFHMJPJNGMMORH-UHFFFAOYSA-N

>  <generation_date>  (34) 
None

>  <alias>  (34) 
None

>  <original SMILES>  (34) 
COc1cc(Nc2cc(Cl)c(OC)c(Cl)c2)cc(C)c1I

>  <HIPPO ID>  (34) 
19698

>  <tags>  (34) 
[]

>  <ref_pdb>  (34) 
c0270a

>  <method>  (34) 
None

>  <ref_url>  (34) 
None

>  <inchikey>  (34) 
UFHMJPJNGMMORH-UHFFFAOYSA-N

>  <submitter_email>  (34) 
None

>  <ref_mols>  (34) 
c0935a,c1116a

>  <submitter_name>  (34) 
None

$$$$
XHSGMSDDIPRFFL-UHFFFAOYSA-N
     RDKit          3D

 21 22  0  0  0  0  0  0  0  0999 V2000
   13.1833    6.2951   10.8324 C   0  0  0  0  0  0  0  0  0  0  0  0
   13.7217    6.9282   11.9981 O   0  0  0  0  0  0  0  0  0  0  0  0
   14.5591    7.9883   11.7900 C   0  0  0  0  0  0  0  0  0  0  0  0
   15.0178    8.3715   10.5521 C   0  0  0  0  0  0  0  0  0  0  0  0
   15.6983    9.5849   10.4232 C   0  0  0  0  0  0  0  0  0  0  0  0
   15.9601    9.9838    9.0761 C   0  0  0  0  0  0  0  0  0  0  0  0
   16.3150    9.1274    8.2933 O   0  0  0  0  0  0  0  0  0  0  0  0
   15.9846   10.4413   11.4769 C   0  0  0  0  0  0  0  0  0  0  0  0
   16.6637   11.6784   11.3228 N   0  0  0  0  0  0  0  0  0  0  0  0
   18.0728   11.8804   11.3396 C   0  0  0  0  0  0  0  0  0  0  0  0
   18.9601   11.0938   10.6147 C   0  0  0  0  0  0  0  0  0  0  0  0
   20.3390   11.3352   10.6768 C   0  0  0  0  0  0  0  0  0  0  0  0
   20.8368   12.3683   11.4602 C   0  0  0  0  0  0  0  0  0  0  0  0
   22.1878   12.4994   11.5372 O   0  0  0  0  0  0  0  0  0  0  0  0
   19.9755   13.2097   12.1458 C   0  0  0  0  0  0  0  0  0  0  0  0
   18.6063   12.9639   12.0676 C   0  0  0  0  0  0  0  0  0  0  0  0
   17.7685   13.7475   12.7670 F   0  0  0  0  0  0  0  0  0  0  0  0
   15.5636   10.0003   12.7322 C   0  0  0  0  0  0  0  0  0  0  0  0
   15.8300   10.7542   13.8442 O   0  0  0  0  0  0  0  0  0  0  0  0
   14.9306   11.8607   13.9594 C   0  0  0  0  0  0  0  0  0  0  0  0
   14.8823    8.7816   12.8971 C   0  0  0  0  0  0  0  0  0  0  0  0
  1  2  1  0
  2  3  1  0
  3  4  2  0
  4  5  1  0
  5  6  1  0
  6  7  2  0
  5  8  2  0
  8  9  1  0
  9 10  1  0
 10 11  2  0
 11 12  1  0
 12 13  2  0
 13 14  1  0
 13 15  1  0
 15 16  2  0
 16 17  1  0
  8 18  1  0
 18 19  1  0
 19 20  1  0
 18 21  2  0
 21  3  1  0
 16 10  1  0
M  END
>  <original ID>  (35) 
XHSGMSDDIPRFFL-UHFFFAOYSA-N

>  <generation_date>  (35) 
None

>  <alias>  (35) 
None

>  <original SMILES>  (35) 
COc1cc(C=O)c(Nc2ccc(O)cc2F)c(OC)c1

>  <HIPPO ID>  (35) 
20240

>  <tags>  (35) 
[]

>  <ref_pdb>  (35) 
c0270a

>  <method>  (35) 
None

>  <ref_url>  (35) 
None

>  <inchikey>  (35) 
XHSGMSDDIPRFFL-UHFFFAOYSA-N

>  <submitter_email>  (35) 
None

>  <ref_mols>  (35) 
c0935a,c1116a

>  <submitter_name>  (35) 
None

$$$$
BNCCHEBEYQMWDZ-UHFFFAOYSA-N
     RDKit          3D

 21 22  0  0  0  0  0  0  0  0999 V2000
   13.4073    6.7126   10.2495 C   0  0  0  0  0  0  0  0  0  0  0  0
   13.8569    7.4072   11.4099 O   0  0  0  0  0  0  0  0  0  0  0  0
   14.7577    8.4142   11.2077 C   0  0  0  0  0  0  0  0  0  0  0  0
   15.3397    8.7339   10.0058 C   0  0  0  0  0  0  0  0  0  0  0  0
   16.3030    9.7430    9.9589 C   0  0  0  0  0  0  0  0  0  0  0  0
   16.7095   10.5252   11.0707 C   0  0  0  0  0  0  0  0  0  0  0  0
   17.7915   11.4158   10.8110 N   0  0  0  0  0  0  0  0  0  0  0  0
   18.7443   12.2311   11.4871 C   0  0  0  0  0  0  0  0  0  0  0  0
   20.1339   11.9768   11.3031 C   0  0  0  0  0  0  0  0  0  0  0  0
   20.7551   10.9558   10.4058 C   0  0  0  0  0  0  0  0  0  0  0  0
   21.8194   11.6201    9.7396 O   0  0  0  0  0  0  0  0  0  0  0  0
   21.1151   12.6887   12.0299 C   0  0  0  0  0  0  0  0  0  0  0  0
   20.7808   13.7349   12.8396 C   0  0  0  0  0  0  0  0  0  0  0  0
   22.1551   14.6492   13.7428 Br  0  0  0  0  0  0  0  0  0  0  0  0
   19.4513   14.0858   12.9540 C   0  0  0  0  0  0  0  0  0  0  0  0
   18.4314   13.3379   12.3156 C   0  0  0  0  0  0  0  0  0  0  0  0
   17.1121   13.7040   12.4309 O   0  0  0  0  0  0  0  0  0  0  0  0
   16.8167   14.7448   13.3642 C   0  0  0  0  0  0  0  0  0  0  0  0
   16.0249   10.2535   12.2625 C   0  0  0  0  0  0  0  0  0  0  0  0
   16.1932   11.1366   13.7930 S   0  0  0  0  0  0  0  0  0  0  0  0
   15.0939    9.1829   12.3226 C   0  0  0  0  0  0  0  0  0  0  0  0
  1  2  1  0
  2  3  1  0
  3  4  2  0
  4  5  1  0
  5  6  2  0
  6  7  1  0
  7  8  1  0
  8  9  2  0
  9 10  1  0
 10 11  1  0
  9 12  1  0
 12 13  2  0
 13 14  1  0
 13 15  1  0
 15 16  2  0
 16 17  1  0
 17 18  1  0
  6 19  1  0
 19 20  1  0
 19 21  2  0
 21  3  1  0
 16  8  1  0
M  END
>  <original ID>  (36) 
BNCCHEBEYQMWDZ-UHFFFAOYSA-N

>  <generation_date>  (36) 
None

>  <alias>  (36) 
None

>  <original SMILES>  (36) 
COc1ccc(Nc2c(CO)cc(Br)cc2OC)c(S)c1

>  <HIPPO ID>  (36) 
20293

>  <tags>  (36) 
[]

>  <ref_pdb>  (36) 
c0270a

>  <method>  (36) 
None

>  <ref_url>  (36) 
None

>  <inchikey>  (36) 
BNCCHEBEYQMWDZ-UHFFFAOYSA-N

>  <submitter_email>  (36) 
None

>  <ref_mols>  (36) 
c0935a,c1116a

>  <submitter_name>  (36) 
None

$$$$
UEUWYQSBCGWXRQ-UHFFFAOYSA-N
     RDKit          3D

 21 22  0  0  0  0  0  0  0  0999 V2000
   13.5170    6.5399   10.9293 C   0  0  0  0  0  0  0  0  0  0  0  0
   13.9237    7.4954   11.8959 O   0  0  0  0  0  0  0  0  0  0  0  0
   14.7925    8.4858   11.5239 C   0  0  0  0  0  0  0  0  0  0  0  0
   15.2519    8.6777   10.2308 C   0  0  0  0  0  0  0  0  0  0  0  0
   16.2305    9.6480    9.9808 C   0  0  0  0  0  0  0  0  0  0  0  0
   16.7783   10.4653   10.9927 C   0  0  0  0  0  0  0  0  0  0  0  0
   17.9174   11.2429   10.6795 N   0  0  0  0  0  0  0  0  0  0  0  0
   18.8083   12.1214   11.3569 C   0  0  0  0  0  0  0  0  0  0  0  0
   20.2106   11.9457   11.1963 C   0  0  0  0  0  0  0  0  0  0  0  0
   20.8950   10.9360   10.3309 C   0  0  0  0  0  0  0  0  0  0  0  0
   21.9592   11.6261    9.6920 O   0  0  0  0  0  0  0  0  0  0  0  0
   21.1335   12.7121   11.9410 C   0  0  0  0  0  0  0  0  0  0  0  0
   20.7213   13.7156   12.7714 C   0  0  0  0  0  0  0  0  0  0  0  0
   22.0255   14.6883   13.7177 Br  0  0  0  0  0  0  0  0  0  0  0  0
   19.3686   13.9616   12.9002 C   0  0  0  0  0  0  0  0  0  0  0  0
   18.4094   13.1519   12.2477 C   0  0  0  0  0  0  0  0  0  0  0  0
   17.0654   13.3586   12.4263 O   0  0  0  0  0  0  0  0  0  0  0  0
   16.6782   14.3320   13.3915 C   0  0  0  0  0  0  0  0  0  0  0  0
   16.2143   10.3581   12.2569 C   0  0  0  0  0  0  0  0  0  0  0  0
   15.2464    9.3688   12.5219 C   0  0  0  0  0  0  0  0  0  0  0  0
   14.5669    9.2157   14.5072 I   0  0  0  0  0  0  0  0  0  0  0  0
  1  2  1  0
  2  3  1  0
  3  4  2  0
  4  5  1  0
  5  6  2  0
  6  7  1  0
  7  8  1  0
  8  9  2  0
  9 10  1  0
 10 11  1  0
  9 12  1  0
 12 13  2  0
 13 14  1  0
 13 15  1  0
 15 16  2  0
 16 17  1  0
 17 18  1  0
  6 19  1  0
 19 20  2  0
 20 21  1  0
 20  3  1  0
 16  8  1  0
M  END
>  <original ID>  (37) 
UEUWYQSBCGWXRQ-UHFFFAOYSA-N

>  <generation_date>  (37) 
None

>  <alias>  (37) 
None

>  <original SMILES>  (37) 
COc1ccc(Nc2c(CO)cc(Br)cc2OC)cc1I

>  <HIPPO ID>  (37) 
20307

>  <tags>  (37) 
[]

>  <ref_pdb>  (37) 
c0270a

>  <method>  (37) 
None

>  <ref_url>  (37) 
None

>  <inchikey>  (37) 
UEUWYQSBCGWXRQ-UHFFFAOYSA-N

>  <submitter_email>  (37) 
None

>  <ref_mols>  (37) 
c0935a,c1116a

>  <submitter_name>  (37) 
None

$$$$
QWZSCUUDVGILAD-UHFFFAOYSA-N
     RDKit          3D

 21 22  0  0  0  0  0  0  0  0999 V2000
   13.4140    6.0763   10.7951 C   0  0  0  0  0  0  0  0  0  0  0  0
   13.6973    7.0793   11.7657 O   0  0  0  0  0  0  0  0  0  0  0  0
   14.5474    8.0883   11.3967 C   0  0  0  0  0  0  0  0  0  0  0  0
   14.8928    8.3551   10.0796 C   0  0  0  0  0  0  0  0  0  0  0  0
   15.7685    9.3948    9.7933 C   0  0  0  0  0  0  0  0  0  0  0  0
   16.3369   10.1837   10.8053 C   0  0  0  0  0  0  0  0  0  0  0  0
   17.2481   11.1757   10.4066 N   0  0  0  0  0  0  0  0  0  0  0  0
   18.3284   11.7909   11.0609 C   0  0  0  0  0  0  0  0  0  0  0  0
   19.6181   11.4101   10.7113 C   0  0  0  0  0  0  0  0  0  0  0  0
   20.7524   12.0275   11.2620 C   0  0  0  0  0  0  0  0  0  0  0  0
   22.0862   11.4299   10.9194 C   0  0  0  0  0  0  0  0  0  0  0  0
   22.7017   10.9288   12.0997 O   0  0  0  0  0  0  0  0  0  0  0  0
   20.6016   13.1162   12.1527 C   0  0  0  0  0  0  0  0  0  0  0  0
   22.4102   14.0691   12.8057 I   0  0  0  0  0  0  0  0  0  0  0  0
   19.3090   13.4901   12.5456 C   0  0  0  0  0  0  0  0  0  0  0  0
   18.8794   14.4320   13.4276 O   0  0  0  0  0  0  0  0  0  0  0  0
   19.7325   15.2396   14.2076 C   0  0  0  0  0  0  0  0  0  0  0  0
   18.1895   12.8040   12.0017 C   0  0  0  0  0  0  0  0  0  0  0  0
   15.9148    9.9817   12.1106 C   0  0  0  0  0  0  0  0  0  0  0  0
   15.0251    8.9335   12.4196 C   0  0  0  0  0  0  0  0  0  0  0  0
   14.5760    8.7961   13.8475 C   0  0  0  0  0  0  0  0  0  0  0  0
  1  2  1  0
  2  3  1  0
  3  4  2  0
  4  5  1  0
  5  6  2  0
  6  7  1  0
  7  8  1  0
  8  9  2  0
  9 10  1  0
 10 11  1  0
 11 12  1  0
 10 13  2  0
 13 14  1  0
 13 15  1  0
 15 16  1  0
 16 17  1  0
 15 18  2  0
  6 19  1  0
 19 20  2  0
 20 21  1  0
 20  3  1  0
 18  8  1  0
M  END
>  <original ID>  (38) 
QWZSCUUDVGILAD-UHFFFAOYSA-N

>  <generation_date>  (38) 
None

>  <alias>  (38) 
None

>  <original SMILES>  (38) 
COc1ccc(Nc2cc(CO)c(I)c(OC)c2)cc1C

>  <HIPPO ID>  (38) 
20337

>  <tags>  (38) 
[]

>  <ref_pdb>  (38) 
c0270a

>  <method>  (38) 
None

>  <ref_url>  (38) 
None

>  <inchikey>  (38) 
QWZSCUUDVGILAD-UHFFFAOYSA-N

>  <submitter_email>  (38) 
None

>  <ref_mols>  (38) 
c0935a,c1116a

>  <submitter_name>  (38) 
None

$$$$
USYSOWQTGWSNHY-UHFFFAOYSA-N
     RDKit          3D

 21 22  0  0  0  0  0  0  0  0999 V2000
   21.2713   10.7502   10.1458 C   0  0  0  0  0  0  0  0  0  0  0  0
   19.9344   11.1421   10.3843 O   0  0  0  0  0  0  0  0  0  0  0  0
   19.7965   12.1355   11.3075 C   0  0  0  0  0  0  0  0  0  0  0  0
   20.9092   12.8044   11.8484 C   0  0  0  0  0  0  0  0  0  0  0  0
   20.7306   13.8243   12.7459 C   0  0  0  0  0  0  0  0  0  0  0  0
   19.4382   14.1643   13.0835 C   0  0  0  0  0  0  0  0  0  0  0  0
   18.2929   13.4902   12.5629 C   0  0  0  0  0  0  0  0  0  0  0  0
   17.0068   14.0638   13.0557 C   0  0  0  0  0  0  0  0  0  0  0  0
   15.9408   13.8720   12.2501 F   0  0  0  0  0  0  0  0  0  0  0  0
   16.6796   13.6110   14.2954 F   0  0  0  0  0  0  0  0  0  0  0  0
   17.1099   15.4184   13.2115 F   0  0  0  0  0  0  0  0  0  0  0  0
   18.4510   12.4375   11.6577 C   0  0  0  0  0  0  0  0  0  0  0  0
   17.4198   11.7267   10.9553 N   0  0  0  0  0  0  0  0  0  0  0  0
   16.5258   10.6301   11.1876 C   0  0  0  0  0  0  0  0  0  0  0  0
   16.0636    9.9617   10.0213 C   0  0  0  0  0  0  0  0  0  0  0  0
   15.2024    8.8632   10.0279 C   0  0  0  0  0  0  0  0  0  0  0  0
   14.7513    8.3939   11.2364 C   0  0  0  0  0  0  0  0  0  0  0  0
   13.9215    7.3149   11.3009 O   0  0  0  0  0  0  0  0  0  0  0  0
   15.1053    9.0549   12.4058 C   0  0  0  0  0  0  0  0  0  0  0  0
   15.9553   10.1842   12.3795 C   0  0  0  0  0  0  0  0  0  0  0  0
   16.2272   10.9266   13.8945 Cl  0  0  0  0  0  0  0  0  0  0  0  0
  1  2  1  0
  2  3  1  0
  3  4  2  0
  4  5  1  0
  5  6  2  0
  6  7  1  0
  7  8  1  0
  8  9  1  0
  8 10  1  0
  8 11  1  0
  7 12  2  0
 12 13  1  0
 13 14  1  0
 14 15  2  0
 15 16  1  0
 16 17  2  0
 17 18  1  0
 17 19  1  0
 19 20  2  0
 20 21  1  0
 12  3  1  0
 20 14  1  0
M  END
>  <original ID>  (39) 
USYSOWQTGWSNHY-UHFFFAOYSA-N

>  <generation_date>  (39) 
None

>  <alias>  (39) 
None

>  <original SMILES>  (39) 
COc1cccc(C(F)(F)F)c1Nc1ccc(O)cc1Cl

>  <HIPPO ID>  (39) 
20357

>  <tags>  (39) 
[]

>  <ref_pdb>  (39) 
c0270a

>  <method>  (39) 
None

>  <ref_url>  (39) 
None

>  <inchikey>  (39) 
USYSOWQTGWSNHY-UHFFFAOYSA-N

>  <submitter_email>  (39) 
None

>  <ref_mols>  (39) 
c0935a,c1116a

>  <submitter_name>  (39) 
None

$$$$
DRVIWUVLIJHGEA-UHFFFAOYSA-N
     RDKit          3D

 22 23  0  0  0  0  0  0  0  0999 V2000
   17.3139   14.6328   14.4108 C   0  0  0  0  0  0  0  0  0  0  0  0
   17.2625   14.4077   13.0117 O   0  0  0  0  0  0  0  0  0  0  0  0
   18.1469   13.4708   12.5450 C   0  0  0  0  0  0  0  0  0  0  0  0
   19.5164   13.8098   12.5944 C   0  0  0  0  0  0  0  0  0  0  0  0
   20.4747   13.0190   11.9809 C   0  0  0  0  0  0  0  0  0  0  0  0
   20.0529   11.9201   11.2624 C   0  0  0  0  0  0  0  0  0  0  0  0
   18.6735   11.5889   11.1991 C   0  0  0  0  0  0  0  0  0  0  0  0
   18.2596   10.5739   10.1996 C   0  0  0  0  0  0  0  0  0  0  0  0
   17.8772    9.3781   10.6699 F   0  0  0  0  0  0  0  0  0  0  0  0
   17.1802   11.0177    9.5616 F   0  0  0  0  0  0  0  0  0  0  0  0
   19.2584   10.3586    9.3251 F   0  0  0  0  0  0  0  0  0  0  0  0
   17.6726   12.3171   11.8742 C   0  0  0  0  0  0  0  0  0  0  0  0
   16.3007   11.9433   11.7418 N   0  0  0  0  0  0  0  0  0  0  0  0
   15.2682   12.8716   12.1672 C   0  0  0  0  0  0  0  0  0  0  0  0
   15.7098   10.6401   11.6709 C   0  0  0  0  0  0  0  0  0  0  0  0
   15.1277   10.1645   10.4739 C   0  0  0  0  0  0  0  0  0  0  0  0
   14.6256    8.8724   10.3639 C   0  0  0  0  0  0  0  0  0  0  0  0
   14.5248    8.1055   11.5094 C   0  0  0  0  0  0  0  0  0  0  0  0
   13.8597    6.9195   11.3855 O   0  0  0  0  0  0  0  0  0  0  0  0
   14.9536    8.6015   12.7502 C   0  0  0  0  0  0  0  0  0  0  0  0
   14.6473    7.8888   14.0281 C   0  0  0  0  0  0  0  0  0  0  0  0
   15.6035    9.8449   12.8085 C   0  0  0  0  0  0  0  0  0  0  0  0
  1  2  1  0
  2  3  1  0
  3  4  2  0
  4  5  1  0
  5  6  2  0
  6  7  1  0
  7  8  1  0
  8  9  1  0
  8 10  1  0
  8 11  1  0
  7 12  2  0
 12 13  1  0
 13 14  1  0
 13 15  1  0
 15 16  2  0
 16 17  1  0
 17 18  2  0
 18 19  1  0
 18 20  1  0
 20 21  1  0
 20 22  2  0
 12  3  1  0
 22 15  1  0
M  END
>  <original ID>  (40) 
DRVIWUVLIJHGEA-UHFFFAOYSA-N

>  <generation_date>  (40) 
None

>  <alias>  (40) 
None

>  <original SMILES>  (40) 
COc1cccc(C(F)(F)F)c1N(C)c1ccc(O)c(C)c1

>  <HIPPO ID>  (40) 
20932

>  <tags>  (40) 
[]

>  <ref_pdb>  (40) 
c0270a

>  <method>  (40) 
None

>  <ref_url>  (40) 
None

>  <inchikey>  (40) 
DRVIWUVLIJHGEA-UHFFFAOYSA-N

>  <submitter_email>  (40) 
None

>  <ref_mols>  (40) 
c0935a,c1116a

>  <submitter_name>  (40) 
None

$$$$
RWGYPDOBFOIEEW-UHFFFAOYSA-N
     RDKit          3D

 22 23  0  0  0  0  0  0  0  0999 V2000
   13.0845    6.3080   10.8798 C   0  0  0  0  0  0  0  0  0  0  0  0
   13.7006    6.8881   12.0294 O   0  0  0  0  0  0  0  0  0  0  0  0
   14.5392    7.9446   11.8120 C   0  0  0  0  0  0  0  0  0  0  0  0
   14.9961    8.3309   10.5733 C   0  0  0  0  0  0  0  0  0  0  0  0
   15.6560    9.5540   10.4502 C   0  0  0  0  0  0  0  0  0  0  0  0
   15.9384    9.9754    9.1116 C   0  0  0  0  0  0  0  0  0  0  0  0
   16.2737    9.1255    8.3124 O   0  0  0  0  0  0  0  0  0  0  0  0
   15.9153   10.3993   11.5189 C   0  0  0  0  0  0  0  0  0  0  0  0
   16.5382   11.6763   11.3951 N   0  0  0  0  0  0  0  0  0  0  0  0
   17.9397   11.9168   11.4073 C   0  0  0  0  0  0  0  0  0  0  0  0
   18.8400   11.1457   10.6780 C   0  0  0  0  0  0  0  0  0  0  0  0
   20.2136   11.4115   10.7200 C   0  0  0  0  0  0  0  0  0  0  0  0
   20.7066   12.4513   11.5047 C   0  0  0  0  0  0  0  0  0  0  0  0
   22.0366   12.7367   11.6374 O   0  0  0  0  0  0  0  0  0  0  0  0
   22.8824   11.5965   11.6526 C   0  0  0  0  0  0  0  0  0  0  0  0
   19.8177   13.2877   12.1874 C   0  0  0  0  0  0  0  0  0  0  0  0
   20.3408   14.4200   13.0261 C   0  0  0  0  0  0  0  0  0  0  0  0
   18.4386   13.0290   12.1095 C   0  0  0  0  0  0  0  0  0  0  0  0
   15.5291    9.9489   12.7860 C   0  0  0  0  0  0  0  0  0  0  0  0
   15.8344   10.8245   13.7960 O   0  0  0  0  0  0  0  0  0  0  0  0
   15.2452   10.5666   15.0563 C   0  0  0  0  0  0  0  0  0  0  0  0
   14.8588    8.7253   12.9310 C   0  0  0  0  0  0  0  0  0  0  0  0
  1  2  1  0
  2  3  1  0
  3  4  2  0
  4  5  1  0
  5  6  1  0
  6  7  2  0
  5  8  2  0
  8  9  1  0
  9 10  1  0
 10 11  2  0
 11 12  1  0
 12 13  2  0
 13 14  1  0
 14 15  1  0
 13 16  1  0
 16 17  1  0
 16 18  2  0
  8 19  1  0
 19 20  1  0
 20 21  1  0
 19 22  2  0
 22  3  1  0
 18 10  1  0
M  END
>  <original ID>  (41) 
RWGYPDOBFOIEEW-UHFFFAOYSA-N

>  <generation_date>  (41) 
None

>  <alias>  (41) 
None

>  <original SMILES>  (41) 
COc1cc(C=O)c(Nc2ccc(OC)c(C)c2)c(OC)c1

>  <HIPPO ID>  (41) 
20957

>  <tags>  (41) 
[]

>  <ref_pdb>  (41) 
c0270a

>  <method>  (41) 
None

>  <ref_url>  (41) 
None

>  <inchikey>  (41) 
RWGYPDOBFOIEEW-UHFFFAOYSA-N

>  <submitter_email>  (41) 
None

>  <ref_mols>  (41) 
c0935a,c1116a

>  <submitter_name>  (41) 
None

$$$$
KNFHVLDFFLAVRM-UHFFFAOYSA-N
     RDKit          3D

 22 23  0  0  0  0  0  0  0  0999 V2000
   21.6457   10.7959   10.5450 C   0  0  0  0  0  0  0  0  0  0  0  0
   20.2973   11.2123   10.3594 O   0  0  0  0  0  0  0  0  0  0  0  0
   19.9857   12.3032   11.1316 C   0  0  0  0  0  0  0  0  0  0  0  0
   20.9895   13.2050   11.5217 C   0  0  0  0  0  0  0  0  0  0  0  0
   20.7109   14.1922   12.4291 C   0  0  0  0  0  0  0  0  0  0  0  0
   19.4191   14.2863   12.9023 C   0  0  0  0  0  0  0  0  0  0  0  0
   18.3637   13.4352   12.4577 C   0  0  0  0  0  0  0  0  0  0  0  0
   17.0384   13.7475   13.0671 C   0  0  0  0  0  0  0  0  0  0  0  0
   17.0135   15.0029   13.6097 F   0  0  0  0  0  0  0  0  0  0  0  0
   16.7510   12.9218   14.1130 F   0  0  0  0  0  0  0  0  0  0  0  0
   15.9951   13.7060   12.2107 F   0  0  0  0  0  0  0  0  0  0  0  0
   18.6249   12.4255   11.5265 C   0  0  0  0  0  0  0  0  0  0  0  0
   17.7096   11.5312   10.9066 N   0  0  0  0  0  0  0  0  0  0  0  0
   16.6506   10.6577   11.2338 C   0  0  0  0  0  0  0  0  0  0  0  0
   15.9885   10.0091   10.1710 C   0  0  0  0  0  0  0  0  0  0  0  0
   15.0360    9.0021   10.3711 C   0  0  0  0  0  0  0  0  0  0  0  0
   14.2816    8.4209    9.2169 C   0  0  0  0  0  0  0  0  0  0  0  0
   14.7500    8.6165   11.6707 C   0  0  0  0  0  0  0  0  0  0  0  0
   13.9460    7.5189   11.8337 O   0  0  0  0  0  0  0  0  0  0  0  0
   15.2448    9.3549   12.7515 C   0  0  0  0  0  0  0  0  0  0  0  0
   14.8018    9.0851   14.1581 C   0  0  0  0  0  0  0  0  0  0  0  0
   16.1992   10.3721   12.5153 C   0  0  0  0  0  0  0  0  0  0  0  0
  1  2  1  0
  2  3  1  0
  3  4  2  0
  4  5  1  0
  5  6  2  0
  6  7  1  0
  7  8  1  0
  8  9  1  0
  8 10  1  0
  8 11  1  0
  7 12  2  0
 12 13  1  0
 13 14  1  0
 14 15  2  0
 15 16  1  0
 16 17  1  0
 16 18  2  0
 18 19  1  0
 18 20  1  0
 20 21  1  0
 20 22  2  0
 12  3  1  0
 22 14  1  0
M  END
>  <original ID>  (42) 
KNFHVLDFFLAVRM-UHFFFAOYSA-N

>  <generation_date>  (42) 
None

>  <alias>  (42) 
None

>  <original SMILES>  (42) 
COc1cccc(C(F)(F)F)c1Nc1cc(C)c(O)c(C)c1

>  <HIPPO ID>  (42) 
20976

>  <tags>  (42) 
[]

>  <ref_pdb>  (42) 
c0270a

>  <method>  (42) 
None

>  <ref_url>  (42) 
None

>  <inchikey>  (42) 
KNFHVLDFFLAVRM-UHFFFAOYSA-N

>  <submitter_email>  (42) 
None

>  <ref_mols>  (42) 
c0935a,c1116a

>  <submitter_name>  (42) 
None

$$$$
UPHPTCPGZPURPC-UHFFFAOYSA-N
     RDKit          3D

 22 23  0  0  0  0  0  0  0  0999 V2000
   23.0807   12.6605   10.7692 C   0  0  0  0  0  0  0  0  0  0  0  0
   22.1228   12.9629   11.7823 O   0  0  0  0  0  0  0  0  0  0  0  0
   20.8523   12.5138   11.5600 C   0  0  0  0  0  0  0  0  0  0  0  0
   20.5271   11.4384   10.7473 C   0  0  0  0  0  0  0  0  0  0  0  0
   19.1895   11.0781   10.5842 C   0  0  0  0  0  0  0  0  0  0  0  0
   18.1520   11.7610   11.2333 C   0  0  0  0  0  0  0  0  0  0  0  0
   16.8098   11.4211   10.8684 N   0  0  0  0  0  0  0  0  0  0  0  0
   16.0830   10.2382   11.2109 C   0  0  0  0  0  0  0  0  0  0  0  0
   15.4811    9.4666   10.2091 C   0  0  0  0  0  0  0  0  0  0  0  0
   15.6714    9.7924    8.8335 C   0  0  0  0  0  0  0  0  0  0  0  0
   16.5363    9.1612    8.2637 O   0  0  0  0  0  0  0  0  0  0  0  0
   14.7436    8.3067   10.4120 C   0  0  0  0  0  0  0  0  0  0  0  0
   14.5065    7.9040   11.7022 C   0  0  0  0  0  0  0  0  0  0  0  0
   13.7164    6.8415   12.0367 O   0  0  0  0  0  0  0  0  0  0  0  0
   13.2167    6.0459   10.9594 C   0  0  0  0  0  0  0  0  0  0  0  0
   15.0301    8.6711   12.7533 C   0  0  0  0  0  0  0  0  0  0  0  0
   15.7845    9.8429   12.5132 C   0  0  0  0  0  0  0  0  0  0  0  0
   16.2676   10.6030   13.5442 O   0  0  0  0  0  0  0  0  0  0  0  0
   15.2576   10.9719   14.4800 C   0  0  0  0  0  0  0  0  0  0  0  0
   18.4817   12.8423   12.0686 C   0  0  0  0  0  0  0  0  0  0  0  0
   17.2457   13.8102   12.9183 S   0  0  0  0  0  0  0  0  0  0  0  0
   19.8328   13.2014   12.2293 C   0  0  0  0  0  0  0  0  0  0  0  0
  1  2  1  0
  2  3  1  0
  3  4  2  0
  4  5  1  0
  5  6  2  0
  6  7  1  0
  7  8  1  0
  8  9  2  0
  9 10  1  0
 10 11  2  0
  9 12  1  0
 12 13  2  0
 13 14  1  0
 14 15  1  0
 13 16  1  0
 16 17  2  0
 17 18  1  0
 18 19  1  0
  6 20  1  0
 20 21  1  0
 20 22  2  0
 22  3  1  0
 17  8  1  0
M  END
>  <original ID>  (43) 
UPHPTCPGZPURPC-UHFFFAOYSA-N

>  <generation_date>  (43) 
None

>  <alias>  (43) 
None

>  <original SMILES>  (43) 
COc1ccc(Nc2c(C=O)cc(OC)cc2OC)c(S)c1

>  <HIPPO ID>  (43) 
21060

>  <tags>  (43) 
[]

>  <ref_pdb>  (43) 
c0270a

>  <method>  (43) 
None

>  <ref_url>  (43) 
None

>  <inchikey>  (43) 
UPHPTCPGZPURPC-UHFFFAOYSA-N

>  <submitter_email>  (43) 
None

>  <ref_mols>  (43) 
c0935a,c1116a

>  <submitter_name>  (43) 
None

$$$$
DDQHGCMPLJEGHL-UHFFFAOYSA-N
     RDKit          3D

 22 23  0  0  0  0  0  0  0  0999 V2000
   13.1303    6.1321   11.9701 C   0  0  0  0  0  0  0  0  0  0  0  0
   13.7258    7.0590   12.8677 O   0  0  0  0  0  0  0  0  0  0  0  0
   14.5558    8.0128   12.3591 C   0  0  0  0  0  0  0  0  0  0  0  0
   14.8518    8.1729   11.0299 C   0  0  0  0  0  0  0  0  0  0  0  0
   15.5618    9.3076   10.6441 C   0  0  0  0  0  0  0  0  0  0  0  0
   15.5862    9.6033    8.8223 Br  0  0  0  0  0  0  0  0  0  0  0  0
   16.1064   10.2692   11.5173 C   0  0  0  0  0  0  0  0  0  0  0  0
   16.8048   11.3876   10.9574 N   0  0  0  0  0  0  0  0  0  0  0  0
   18.0509   11.9555   11.3400 C   0  0  0  0  0  0  0  0  0  0  0  0
   19.2449   11.3840   10.8868 C   0  0  0  0  0  0  0  0  0  0  0  0
   20.5038   11.9375   11.2051 C   0  0  0  0  0  0  0  0  0  0  0  0
   21.7482   11.2104   10.8060 C   0  0  0  0  0  0  0  0  0  0  0  0
   22.4226   10.7786   11.9783 O   0  0  0  0  0  0  0  0  0  0  0  0
   20.5583   13.1345   11.9319 C   0  0  0  0  0  0  0  0  0  0  0  0
   22.4196   14.0231   12.4644 I   0  0  0  0  0  0  0  0  0  0  0  0
   19.3708   13.7480   12.3263 C   0  0  0  0  0  0  0  0  0  0  0  0
   19.4092   15.0318   12.7907 O   0  0  0  0  0  0  0  0  0  0  0  0
   19.2872   15.1325   14.1994 C   0  0  0  0  0  0  0  0  0  0  0  0
   18.1272   13.1577   12.0491 C   0  0  0  0  0  0  0  0  0  0  0  0
   15.7619   10.0939   12.8547 C   0  0  0  0  0  0  0  0  0  0  0  0
   16.0651   11.4083   14.1779 Br  0  0  0  0  0  0  0  0  0  0  0  0
   15.0164    8.9694   13.2684 C   0  0  0  0  0  0  0  0  0  0  0  0
  1  2  1  0
  2  3  1  0
  3  4  2  0
  4  5  1  0
  5  6  1  0
  5  7  2  0
  7  8  1  0
  8  9  1  0
  9 10  2  0
 10 11  1  0
 11 12  1  0
 12 13  1  0
 11 14  2  0
 14 15  1  0
 14 16  1  0
 16 17  1  0
 17 18  1  0
 16 19  2  0
  7 20  1  0
 20 21  1  0
 20 22  2  0
 22  3  1  0
 19  9  1  0
M  END
>  <original ID>  (44) 
DDQHGCMPLJEGHL-UHFFFAOYSA-N

>  <generation_date>  (44) 
None

>  <alias>  (44) 
None

>  <original SMILES>  (44) 
COc1cc(Br)c(Nc2cc(CO)c(I)c(OC)c2)c(Br)c1

>  <HIPPO ID>  (44) 
21070

>  <tags>  (44) 
[]

>  <ref_pdb>  (44) 
c0270a

>  <method>  (44) 
None

>  <ref_url>  (44) 
None

>  <inchikey>  (44) 
DDQHGCMPLJEGHL-UHFFFAOYSA-N

>  <submitter_email>  (44) 
None

>  <ref_mols>  (44) 
c0935a,c1116a

>  <submitter_name>  (44) 
None

$$$$
PDINXTVUFGBVCC-UHFFFAOYSA-N
     RDKit          3D

 22 23  0  0  0  0  0  0  0  0999 V2000
   21.3276   10.7346   10.1292 C   0  0  0  0  0  0  0  0  0  0  0  0
   19.9904   11.1542   10.2890 O   0  0  0  0  0  0  0  0  0  0  0  0
   19.8197   12.1331   11.2164 C   0  0  0  0  0  0  0  0  0  0  0  0
   20.8974   12.8067   11.7933 C   0  0  0  0  0  0  0  0  0  0  0  0
   20.6577   13.7618   12.7434 C   0  0  0  0  0  0  0  0  0  0  0  0
   22.1295   14.5891   13.5795 Br  0  0  0  0  0  0  0  0  0  0  0  0
   19.3472   14.0648   13.0779 C   0  0  0  0  0  0  0  0  0  0  0  0
   18.2343   13.3866   12.5004 C   0  0  0  0  0  0  0  0  0  0  0  0
   16.8595   13.7837   12.9435 C   0  0  0  0  0  0  0  0  0  0  0  0
   16.8786   15.1116   13.4604 O   0  0  0  0  0  0  0  0  0  0  0  0
   18.4674   12.3881   11.5512 C   0  0  0  0  0  0  0  0  0  0  0  0
   17.4826   11.6390   10.8426 N   0  0  0  0  0  0  0  0  0  0  0  0
   16.5255   10.6493   11.1602 C   0  0  0  0  0  0  0  0  0  0  0  0
   15.8670   10.0211   10.0838 C   0  0  0  0  0  0  0  0  0  0  0  0
   14.9350    8.9957   10.2649 C   0  0  0  0  0  0  0  0  0  0  0  0
   13.9825    8.5556    8.9029 Cl  0  0  0  0  0  0  0  0  0  0  0  0
   14.6792    8.5122   11.5404 C   0  0  0  0  0  0  0  0  0  0  0  0
   13.8329    7.4753   11.8430 O   0  0  0  0  0  0  0  0  0  0  0  0
   13.9223    6.2966   11.0532 C   0  0  0  0  0  0  0  0  0  0  0  0
   15.1946    9.2542   12.6180 C   0  0  0  0  0  0  0  0  0  0  0  0
   14.6551    8.9333   14.2319 Cl  0  0  0  0  0  0  0  0  0  0  0  0
   16.1077   10.3101   12.4353 C   0  0  0  0  0  0  0  0  0  0  0  0
  1  2  1  0
  2  3  1  0
  3  4  2  0
  4  5  1  0
  5  6  1  0
  5  7  2  0
  7  8  1  0
  8  9  1  0
  9 10  1  0
  8 11  2  0
 11 12  1  0
 12 13  1  0
 13 14  2  0
 14 15  1  0
 15 16  1  0
 15 17  2  0
 17 18  1  0
 18 19  1  0
 17 20  1  0
 20 21  1  0
 20 22  2  0
 11  3  1  0
 22 13  1  0
M  END
>  <original ID>  (45) 
PDINXTVUFGBVCC-UHFFFAOYSA-N

>  <generation_date>  (45) 
None

>  <alias>  (45) 
None

>  <original SMILES>  (45) 
COc1cc(Br)cc(CO)c1Nc1cc(Cl)c(OC)c(Cl)c1

>  <HIPPO ID>  (45) 
21072

>  <tags>  (45) 
[]

>  <ref_pdb>  (45) 
c0270a

>  <method>  (45) 
None

>  <ref_url>  (45) 
None

>  <inchikey>  (45) 
PDINXTVUFGBVCC-UHFFFAOYSA-N

>  <submitter_email>  (45) 
None

>  <ref_mols>  (45) 
c0935a,c1116a

>  <submitter_name>  (45) 
None

$$$$
XICVNSAIEGKFLL-UHFFFAOYSA-N
     RDKit          3D

 22 23  0  0  0  0  0  0  0  0999 V2000
   13.1826    6.3845   11.2030 C   0  0  0  0  0  0  0  0  0  0  0  0
   13.8010    7.1070   12.2697 O   0  0  0  0  0  0  0  0  0  0  0  0
   14.6898    8.0895   11.9441 C   0  0  0  0  0  0  0  0  0  0  0  0
   15.0649    8.4018   10.6721 C   0  0  0  0  0  0  0  0  0  0  0  0
   15.7938    9.5776   10.4589 C   0  0  0  0  0  0  0  0  0  0  0  0
   15.3639   10.2700    8.7943 Br  0  0  0  0  0  0  0  0  0  0  0  0
   16.4223   10.3835   11.4403 C   0  0  0  0  0  0  0  0  0  0  0  0
   17.3830   11.3575   11.0003 N   0  0  0  0  0  0  0  0  0  0  0  0
   18.3801   12.2223   11.5679 C   0  0  0  0  0  0  0  0  0  0  0  0
   19.7668   12.0333   11.3090 C   0  0  0  0  0  0  0  0  0  0  0  0
   20.3994   10.9742   10.4713 C   0  0  0  0  0  0  0  0  0  0  0  0
   21.5322   11.5447    9.8335 O   0  0  0  0  0  0  0  0  0  0  0  0
   20.7565   12.8103   11.9663 C   0  0  0  0  0  0  0  0  0  0  0  0
   20.4319   13.8523   12.7820 C   0  0  0  0  0  0  0  0  0  0  0  0
   21.8212   14.7952   13.6324 Br  0  0  0  0  0  0  0  0  0  0  0  0
   19.0990   14.1551   12.9489 C   0  0  0  0  0  0  0  0  0  0  0  0
   18.0801   13.3477   12.3770 C   0  0  0  0  0  0  0  0  0  0  0  0
   16.7579   13.6754   12.5342 O   0  0  0  0  0  0  0  0  0  0  0  0
   16.4585   14.6257   13.5539 C   0  0  0  0  0  0  0  0  0  0  0  0
   15.9612   10.0714   12.7202 C   0  0  0  0  0  0  0  0  0  0  0  0
   16.1985   11.1478   14.2496 Br  0  0  0  0  0  0  0  0  0  0  0  0
   15.1269    8.9353   12.9630 C   0  0  0  0  0  0  0  0  0  0  0  0
  1  2  1  0
  2  3  1  0
  3  4  2  0
  4  5  1  0
  5  6  1  0
  5  7  2  0
  7  8  1  0
  8  9  1  0
  9 10  2  0
 10 11  1  0
 11 12  1  0
 10 13  1  0
 13 14  2  0
 14 15  1  0
 14 16  1  0
 16 17  2  0
 17 18  1  0
 18 19  1  0
  7 20  1  0
 20 21  1  0
 20 22  2  0
 22  3  1  0
 17  9  1  0
M  END
>  <original ID>  (46) 
XICVNSAIEGKFLL-UHFFFAOYSA-N

>  <generation_date>  (46) 
None

>  <alias>  (46) 
None

>  <original SMILES>  (46) 
COc1cc(Br)c(Nc2c(CO)cc(Br)cc2OC)c(Br)c1

>  <HIPPO ID>  (46) 
21077

>  <tags>  (46) 
[]

>  <ref_pdb>  (46) 
c0270a

>  <method>  (46) 
None

>  <ref_url>  (46) 
None

>  <inchikey>  (46) 
XICVNSAIEGKFLL-UHFFFAOYSA-N

>  <submitter_email>  (46) 
None

>  <ref_mols>  (46) 
c0935a,c1116a

>  <submitter_name>  (46) 
None

$$$$
ZGXJYDGUTYROOK-UHFFFAOYSA-N
     RDKit          3D

 22 23  0  0  0  0  0  0  0  0999 V2000
   22.5733   11.0529   10.7813 C   0  0  0  0  0  0  0  0  0  0  0  0
   21.7177   11.9946   10.1830 O   0  0  0  0  0  0  0  0  0  0  0  0
   20.6108   12.1502   10.9427 C   0  0  0  0  0  0  0  0  0  0  0  0
   19.4848   11.4289   10.5804 C   0  0  0  0  0  0  0  0  0  0  0  0
   18.2405   11.7693   11.0924 C   0  0  0  0  0  0  0  0  0  0  0  0
   17.1141   11.2265   10.4563 N   0  0  0  0  0  0  0  0  0  0  0  0
   16.2247   10.2049   10.8006 C   0  0  0  0  0  0  0  0  0  0  0  0
   15.5731    9.5656    9.7368 C   0  0  0  0  0  0  0  0  0  0  0  0
   14.6894    8.5287    9.9565 C   0  0  0  0  0  0  0  0  0  0  0  0
   14.0363    8.0462    8.8962 F   0  0  0  0  0  0  0  0  0  0  0  0
   14.4373    8.0795   11.2416 C   0  0  0  0  0  0  0  0  0  0  0  0
   13.6137    7.0400   11.5780 O   0  0  0  0  0  0  0  0  0  0  0  0
   13.3044    6.1278   10.5314 C   0  0  0  0  0  0  0  0  0  0  0  0
   14.9820    8.8139   12.3010 C   0  0  0  0  0  0  0  0  0  0  0  0
   14.5946    8.5491   13.5574 F   0  0  0  0  0  0  0  0  0  0  0  0
   15.8705    9.8683   12.0952 C   0  0  0  0  0  0  0  0  0  0  0  0
   18.1731   12.7604   12.0696 C   0  0  0  0  0  0  0  0  0  0  0  0
   19.3433   13.4516   12.4831 C   0  0  0  0  0  0  0  0  0  0  0  0
   19.2186   14.5759   13.4525 C   0  0  0  0  0  0  0  0  0  0  0  0
   20.1762   14.5327   14.4877 O   0  0  0  0  0  0  0  0  0  0  0  0
   20.5730   13.1474   11.8992 C   0  0  0  0  0  0  0  0  0  0  0  0
   22.3947   14.1541   12.3793 I   0  0  0  0  0  0  0  0  0  0  0  0
  1  2  1  0
  2  3  1  0
  3  4  2  0
  4  5  1  0
  5  6  1  0
  6  7  1  0
  7  8  2  0
  8  9  1  0
  9 10  1  0
  9 11  2  0
 11 12  1  0
 12 13  1  0
 11 14  1  0
 14 15  1  0
 14 16  2  0
  5 17  2  0
 17 18  1  0
 18 19  1  0
 19 20  1  0
 18 21  2  0
 21 22  1  0
 21  3  1  0
 16  7  1  0
M  END
>  <original ID>  (47) 
ZGXJYDGUTYROOK-UHFFFAOYSA-N

>  <generation_date>  (47) 
None

>  <alias>  (47) 
None

>  <original SMILES>  (47) 
COc1cc(Nc2cc(F)c(OC)c(F)c2)cc(CO)c1I

>  <HIPPO ID>  (47) 
21090

>  <tags>  (47) 
[]

>  <ref_pdb>  (47) 
c0270a

>  <method>  (47) 
None

>  <ref_url>  (47) 
None

>  <inchikey>  (47) 
ZGXJYDGUTYROOK-UHFFFAOYSA-N

>  <submitter_email>  (47) 
None

>  <ref_mols>  (47) 
c0935a,c1116a

>  <submitter_name>  (47) 
None

$$$$
OUECJSSXQFLJCC-UHFFFAOYSA-N
     RDKit          3D

 22 24  0  0  0  0  0  0  0  0999 V2000
   21.3065   10.8582   10.2878 C   0  0  0  0  0  0  0  0  0  0  0  0
   19.9263   11.1518   10.4158 O   0  0  0  0  0  0  0  0  0  0  0  0
   19.6435   12.1632   11.2911 C   0  0  0  0  0  0  0  0  0  0  0  0
   20.6641   12.9475   11.8699 C   0  0  0  0  0  0  0  0  0  0  0  0
   20.3515   13.9715   12.7298 C   0  0  0  0  0  0  0  0  0  0  0  0
   19.0172   14.1821   12.9903 C   0  0  0  0  0  0  0  0  0  0  0  0
   17.9732   13.3987   12.4319 C   0  0  0  0  0  0  0  0  0  0  0  0
   18.2577   12.3595   11.5596 C   0  0  0  0  0  0  0  0  0  0  0  0
   17.3181   11.5555   10.8475 N   0  0  0  0  0  0  0  0  0  0  0  0
   16.4255   10.4848   11.1234 C   0  0  0  0  0  0  0  0  0  0  0  0
   16.0526    9.7061    9.9947 C   0  0  0  0  0  0  0  0  0  0  0  0
   15.1855    8.6090   10.0550 C   0  0  0  0  0  0  0  0  0  0  0  0
   14.6710    8.2232   11.2695 C   0  0  0  0  0  0  0  0  0  0  0  0
   13.8416    7.1455   11.3070 O   0  0  0  0  0  0  0  0  0  0  0  0
   14.9527    8.9719   12.3979 C   0  0  0  0  0  0  0  0  0  0  0  0
   15.7710   10.1231   12.2995 C   0  0  0  0  0  0  0  0  0  0  0  0
   15.8046   10.9132   13.4976 N   0  0  0  0  0  4  0  0  0  0  0  0
   16.8924   11.1057   14.0410 O   0  0  0  0  0  0  0  0  0  0  0  0
   14.7105   11.2638   13.9646 O   0  0  0  0  0  1  0  0  0  0  0  0
   16.6754   14.0140   12.8465 C   0  0  0  0  0  0  0  0  0  0  0  0
   17.0718   14.8053   14.0974 C   0  0  0  0  0  0  0  0  0  0  0  0
   18.4977   15.2860   13.8524 C   0  0  0  0  0  0  0  0  0  0  0  0
  1  2  1  0
  2  3  1  0
  3  4  2  0
  4  5  1  0
  5  6  2  0
  6  7  1  0
  7  8  2  0
  8  9  1  0
  9 10  1  0
 10 11  2  0
 11 12  1  0
 12 13  2  0
 13 14  1  0
 13 15  1  0
 15 16  2  0
 16 17  1  0
 17 18  2  0
 17 19  1  0
  7 20  1  0
 20 21  1  0
 21 22  1  0
  8  3  1  0
 16 10  1  0
 22  6  1  0
M  CHG  2  17   1  19  -1
M  END
>  <original ID>  (48) 
OUECJSSXQFLJCC-UHFFFAOYSA-N

>  <generation_date>  (48) 
None

>  <alias>  (48) 
None

>  <original SMILES>  (48) 
COc1ccc2c(c1Nc1ccc(O)cc1[N+](=O)[O-])CCC2

>  <HIPPO ID>  (48) 
21139

>  <tags>  (48) 
[]

>  <ref_pdb>  (48) 
c0270a

>  <method>  (48) 
None

>  <ref_url>  (48) 
None

>  <inchikey>  (48) 
OUECJSSXQFLJCC-UHFFFAOYSA-N

>  <submitter_email>  (48) 
None

>  <ref_mols>  (48) 
c0935a,c1116a

>  <submitter_name>  (48) 
None

$$$$
JJPAHVCJDKXDLK-UHFFFAOYSA-N
     RDKit          3D

 22 24  0  0  0  0  0  0  0  0999 V2000
   21.6958   10.8454   10.6271 C   0  0  0  0  0  0  0  0  0  0  0  0
   20.3388   11.1702   10.3463 O   0  0  0  0  0  0  0  0  0  0  0  0
   19.8884   12.2293   11.0961 C   0  0  0  0  0  0  0  0  0  0  0  0
   20.7883   13.2118   11.5517 C   0  0  0  0  0  0  0  0  0  0  0  0
   20.3641   14.1855   12.4207 C   0  0  0  0  0  0  0  0  0  0  0  0
   19.0353   14.1680   12.7833 C   0  0  0  0  0  0  0  0  0  0  0  0
   18.1038   13.2123   12.3028 C   0  0  0  0  0  0  0  0  0  0  0  0
   18.4979   12.2344   11.4010 C   0  0  0  0  0  0  0  0  0  0  0  0
   17.7027   11.2591   10.7573 N   0  0  0  0  0  0  0  0  0  0  0  0
   16.6187   10.4052   11.0185 C   0  0  0  0  0  0  0  0  0  0  0  0
   16.1351    9.6124    9.9559 C   0  0  0  0  0  0  0  0  0  0  0  0
   15.1825    8.6116   10.1405 C   0  0  0  0  0  0  0  0  0  0  0  0
   14.6823    8.3906   11.4072 C   0  0  0  0  0  0  0  0  0  0  0  0
   13.8323    7.3249   11.5438 O   0  0  0  0  0  0  0  0  0  0  0  0
   15.0417    9.2487   12.4560 C   0  0  0  0  0  0  0  0  0  0  0  0
   14.4061    9.0825   13.7791 C   0  0  0  0  0  0  0  0  0  0  0  0
   13.7260    8.1269   14.1163 O   0  0  0  0  0  0  0  0  0  0  0  0
   14.6161   10.1220   14.6010 O   0  0  0  0  0  0  0  0  0  0  0  0
   16.0087   10.2511   12.2545 C   0  0  0  0  0  0  0  0  0  0  0  0
   16.7718   13.4975   12.9170 C   0  0  0  0  0  0  0  0  0  0  0  0
   16.9422   14.9163   13.4785 C   0  0  0  0  0  0  0  0  0  0  0  0
   18.4253   15.1575   13.7164 C   0  0  0  0  0  0  0  0  0  0  0  0
  1  2  1  0
  2  3  1  0
  3  4  2  0
  4  5  1  0
  5  6  2  0
  6  7  1  0
  7  8  2  0
  8  9  1  0
  9 10  1  0
 10 11  2  0
 11 12  1  0
 12 13  2  0
 13 14  1  0
 13 15  1  0
 15 16  1  0
 16 17  2  0
 16 18  1  0
 15 19  2  0
  7 20  1  0
 20 21  1  0
 21 22  1  0
  8  3  1  0
 19 10  1  0
 22  6  1  0
M  END
>  <original ID>  (49) 
JJPAHVCJDKXDLK-UHFFFAOYSA-N

>  <generation_date>  (49) 
None

>  <alias>  (49) 
None

>  <original SMILES>  (49) 
COc1ccc2c(c1Nc1ccc(O)c(C(=O)O)c1)CCC2

>  <HIPPO ID>  (49) 
21140

>  <tags>  (49) 
[]

>  <ref_pdb>  (49) 
c0270a

>  <method>  (49) 
None

>  <ref_url>  (49) 
None

>  <inchikey>  (49) 
JJPAHVCJDKXDLK-UHFFFAOYSA-N

>  <submitter_email>  (49) 
None

>  <ref_mols>  (49) 
c0935a,c1116a

>  <submitter_name>  (49) 
None

$$$$
WHCRKRCRCJANGY-UHFFFAOYSA-N
     RDKit          3D

 22 24  0  0  0  0  0  0  0  0999 V2000
   21.6782   10.8652   10.6417 C   0  0  0  0  0  0  0  0  0  0  0  0
   20.3082   11.1577   10.3911 O   0  0  0  0  0  0  0  0  0  0  0  0
   19.8370   12.1944   11.1581 C   0  0  0  0  0  0  0  0  0  0  0  0
   20.7143   13.1743   11.6601 C   0  0  0  0  0  0  0  0  0  0  0  0
   20.2484   14.1521   12.5047 C   0  0  0  0  0  0  0  0  0  0  0  0
   18.9058   14.1294   12.8144 C   0  0  0  0  0  0  0  0  0  0  0  0
   18.0013   13.1651   12.3072 C   0  0  0  0  0  0  0  0  0  0  0  0
   18.4377   12.1947   11.4192 C   0  0  0  0  0  0  0  0  0  0  0  0
   17.6499   11.2463   10.7336 N   0  0  0  0  0  0  0  0  0  0  0  0
   16.5640   10.3909   10.9691 C   0  0  0  0  0  0  0  0  0  0  0  0
   15.9801    9.7659    9.8554 C   0  0  0  0  0  0  0  0  0  0  0  0
   15.0048    8.7871    9.9790 C   0  0  0  0  0  0  0  0  0  0  0  0
   14.4653    8.3037    8.8564 F   0  0  0  0  0  0  0  0  0  0  0  0
   14.5969    8.3563   11.2253 C   0  0  0  0  0  0  0  0  0  0  0  0
   13.7449    7.3157   11.4821 O   0  0  0  0  0  0  0  0  0  0  0  0
   13.4491    6.4440   10.3946 C   0  0  0  0  0  0  0  0  0  0  0  0
   15.0585    9.0838   12.3268 C   0  0  0  0  0  0  0  0  0  0  0  0
   14.5612    8.8199   13.5454 F   0  0  0  0  0  0  0  0  0  0  0  0
   16.0232   10.0941   12.2102 C   0  0  0  0  0  0  0  0  0  0  0  0
   16.6216   13.5129   12.7656 C   0  0  0  0  0  0  0  0  0  0  0  0
   16.8804   14.5173   13.8988 C   0  0  0  0  0  0  0  0  0  0  0  0
   18.2258   15.1763   13.6297 C   0  0  0  0  0  0  0  0  0  0  0  0
  1  2  1  0
  2  3  1  0
  3  4  2  0
  4  5  1  0
  5  6  2  0
  6  7  1  0
  7  8  2  0
  8  9  1  0
  9 10  1  0
 10 11  2  0
 11 12  1  0
 12 13  1  0
 12 14  2  0
 14 15  1  0
 15 16  1  0
 14 17  1  0
 17 18  1  0
 17 19  2  0
  7 20  1  0
 20 21  1  0
 21 22  1  0
  8  3  1  0
 19 10  1  0
 22  6  1  0
M  END
>  <original ID>  (50) 
WHCRKRCRCJANGY-UHFFFAOYSA-N

>  <generation_date>  (50) 
None

>  <alias>  (50) 
None

>  <original SMILES>  (50) 
COc1ccc2c(c1Nc1cc(F)c(OC)c(F)c1)CCC2

>  <HIPPO ID>  (50) 
21188

>  <tags>  (50) 
[]

>  <ref_pdb>  (50) 
c0270a

>  <method>  (50) 
None

>  <ref_url>  (50) 
None

>  <inchikey>  (50) 
WHCRKRCRCJANGY-UHFFFAOYSA-N

>  <submitter_email>  (50) 
None

>  <ref_mols>  (50) 
c0935a,c1116a

>  <submitter_name>  (50) 
None

$$$$
OSZBSUOFRJIFPR-UHFFFAOYSA-N
     RDKit          3D

 22 24  0  0  0  0  0  0  0  0999 V2000
   13.0969    6.4359   12.3758 C   0  0  0  0  0  0  0  0  0  0  0  0
   13.5542    7.1700   11.2706 O   0  0  0  0  0  0  0  0  0  0  0  0
   14.4897    8.1536   11.3752 C   0  0  0  0  0  0  0  0  0  0  0  0
   14.9465    8.4725   10.1105 C   0  0  0  0  0  0  0  0  0  0  0  0
   15.9208    9.4392    9.9229 C   0  0  0  0  0  0  0  0  0  0  0  0
   16.2778    9.5534    8.6224 O   0  0  0  0  0  0  0  0  0  0  0  0
   16.5018   10.1638   10.9734 C   0  0  0  0  0  0  0  0  0  0  0  0
   17.5936   11.0186   10.7129 N   0  0  0  0  0  0  0  0  0  0  0  0
   18.3459   12.0347   11.3568 C   0  0  0  0  0  0  0  0  0  0  0  0
   19.7330   12.1214   11.0420 C   0  0  0  0  0  0  0  0  0  0  0  0
   20.2607   11.0816   10.3155 O   0  0  0  0  0  0  0  0  0  0  0  0
   21.6370   10.8550   10.6155 C   0  0  0  0  0  0  0  0  0  0  0  0
   20.5665   13.1730   11.4737 C   0  0  0  0  0  0  0  0  0  0  0  0
   20.0847   14.1287   12.3320 C   0  0  0  0  0  0  0  0  0  0  0  0
   18.7636   14.0247   12.7074 C   0  0  0  0  0  0  0  0  0  0  0  0
   17.8952   13.0020   12.2454 C   0  0  0  0  0  0  0  0  0  0  0  0
   16.5554   13.1941   12.8769 C   0  0  0  0  0  0  0  0  0  0  0  0
   16.6317   14.6171   13.4483 C   0  0  0  0  0  0  0  0  0  0  0  0
   18.0970   14.9825   13.6346 C   0  0  0  0  0  0  0  0  0  0  0  0
   15.9650    9.9173   12.2335 C   0  0  0  0  0  0  0  0  0  0  0  0
   14.9824    8.9109   12.4463 C   0  0  0  0  0  0  0  0  0  0  0  0
   14.4013    8.7470   14.2502 Br  0  0  0  0  0  0  0  0  0  0  0  0
  1  2  1  0
  2  3  1  0
  3  4  2  0
  4  5  1  0
  5  6  1  0
  5  7  2  0
  7  8  1  0
  8  9  1  0
  9 10  2  0
 10 11  1  0
 11 12  1  0
 10 13  1  0
 13 14  2  0
 14 15  1  0
 15 16  2  0
 16 17  1  0
 17 18  1  0
 18 19  1  0
  7 20  1  0
 20 21  2  0
 21 22  1  0
 21  3  1  0
 16  9  1  0
 19 15  1  0
M  END
>  <original ID>  (51) 
OSZBSUOFRJIFPR-UHFFFAOYSA-N

>  <generation_date>  (51) 
None

>  <alias>  (51) 
None

>  <original SMILES>  (51) 
COc1cc(O)c(Nc2c(OC)ccc3c2CCC3)cc1Br

>  <HIPPO ID>  (51) 
21190

>  <tags>  (51) 
[]

>  <ref_pdb>  (51) 
c0270a

>  <method>  (51) 
None

>  <ref_url>  (51) 
None

>  <inchikey>  (51) 
OSZBSUOFRJIFPR-UHFFFAOYSA-N

>  <submitter_email>  (51) 
None

>  <ref_mols>  (51) 
c0935a,c1116a

>  <submitter_name>  (51) 
None

$$$$
SUHVJTBAALEPGX-UHFFFAOYSA-N
     RDKit          3D

 22 24  0  0  0  0  0  0  0  0999 V2000
   13.2548    6.1061   10.9898 C   0  0  0  0  0  0  0  0  0  0  0  0
   13.7571    6.8395   12.1120 O   0  0  0  0  0  0  0  0  0  0  0  0
   14.5904    7.8873   11.8458 C   0  0  0  0  0  0  0  0  0  0  0  0
   14.8987    8.3185   10.5893 C   0  0  0  0  0  0  0  0  0  0  0  0
   15.6003    9.5152   10.4466 C   0  0  0  0  0  0  0  0  0  0  0  0
   15.3132   10.2531    8.7764 Br  0  0  0  0  0  0  0  0  0  0  0  0
   16.2170   10.2649   11.4751 C   0  0  0  0  0  0  0  0  0  0  0  0
   17.0337   11.3710   11.0700 N   0  0  0  0  0  0  0  0  0  0  0  0
   18.0214   12.2171   11.6540 C   0  0  0  0  0  0  0  0  0  0  0  0
   19.3992   12.0681   11.3108 C   0  0  0  0  0  0  0  0  0  0  0  0
   19.7106   11.0557   10.4447 O   0  0  0  0  0  0  0  0  0  0  0  0
   21.1056   10.8349   10.2672 C   0  0  0  0  0  0  0  0  0  0  0  0
   20.4132   12.9100   11.8310 C   0  0  0  0  0  0  0  0  0  0  0  0
   20.1071   13.9469   12.6785 C   0  0  0  0  0  0  0  0  0  0  0  0
   18.7800   14.1257   12.9833 C   0  0  0  0  0  0  0  0  0  0  0  0
   17.7458   13.2876   12.4934 C   0  0  0  0  0  0  0  0  0  0  0  0
   16.4367   13.8833   12.9074 C   0  0  0  0  0  0  0  0  0  0  0  0
   16.8470   14.7277   14.1204 C   0  0  0  0  0  0  0  0  0  0  0  0
   18.2512   15.2437   13.8194 C   0  0  0  0  0  0  0  0  0  0  0  0
   15.8155    9.8434   12.7412 C   0  0  0  0  0  0  0  0  0  0  0  0
   16.1091   10.7986   14.3407 Br  0  0  0  0  0  0  0  0  0  0  0  0
   15.0375    8.6599   12.9188 C   0  0  0  0  0  0  0  0  0  0  0  0
  1  2  1  0
  2  3  1  0
  3  4  2  0
  4  5  1  0
  5  6  1  0
  5  7  2  0
  7  8  1  0
  8  9  1  0
  9 10  2  0
 10 11  1  0
 11 12  1  0
 10 13  1  0
 13 14  2  0
 14 15  1  0
 15 16  2  0
 16 17  1  0
 17 18  1  0
 18 19  1  0
  7 20  1  0
 20 21  1  0
 20 22  2  0
 22  3  1  0
 16  9  1  0
 19 15  1  0
M  END
>  <original ID>  (52) 
SUHVJTBAALEPGX-UHFFFAOYSA-N

>  <generation_date>  (52) 
None

>  <alias>  (52) 
None

>  <original SMILES>  (52) 
COc1cc(Br)c(Nc2c(OC)ccc3c2CCC3)c(Br)c1

>  <HIPPO ID>  (52) 
21195

>  <tags>  (52) 
[]

>  <ref_pdb>  (52) 
c0270a

>  <method>  (52) 
None

>  <ref_url>  (52) 
None

>  <inchikey>  (52) 
SUHVJTBAALEPGX-UHFFFAOYSA-N

>  <submitter_email>  (52) 
None

>  <ref_mols>  (52) 
c0935a,c1116a

>  <submitter_name>  (52) 
None

$$$$
SZTZSZPNVMEEFR-UHFFFAOYSA-N
     RDKit          3D

 22 24  0  0  0  0  0  0  0  0999 V2000
   21.1274   10.7759   10.1923 C   0  0  0  0  0  0  0  0  0  0  0  0
   19.7804   11.0851   10.5149 O   0  0  0  0  0  0  0  0  0  0  0  0
   19.6253   12.1295   11.3763 C   0  0  0  0  0  0  0  0  0  0  0  0
   20.7481   12.8236   11.8950 C   0  0  0  0  0  0  0  0  0  0  0  0
   20.6018   13.9221   12.7158 C   0  0  0  0  0  0  0  0  0  0  0  0
   19.3216   14.2927   13.0431 C   0  0  0  0  0  0  0  0  0  0  0  0
   18.1937   13.5863   12.5895 C   0  0  0  0  0  0  0  0  0  0  0  0
   18.3058   12.5000   11.7204 C   0  0  0  0  0  0  0  0  0  0  0  0
   17.1429   11.9108   11.1531 N   0  0  0  0  0  0  0  0  0  0  0  0
   16.5158   10.6456   11.3030 C   0  0  0  0  0  0  0  0  0  0  0  0
   15.9196   10.0606   10.1741 C   0  0  0  0  0  0  0  0  0  0  0  0
   15.0145    8.9948   10.2759 C   0  0  0  0  0  0  0  0  0  0  0  0
   14.0684    8.6299    8.8850 Cl  0  0  0  0  0  0  0  0  0  0  0  0
   14.7237    8.4367   11.5177 C   0  0  0  0  0  0  0  0  0  0  0  0
   13.8154    7.4281   11.7287 O   0  0  0  0  0  0  0  0  0  0  0  0
   13.9888    6.2440   10.9624 C   0  0  0  0  0  0  0  0  0  0  0  0
   15.2263    9.0936   12.6512 C   0  0  0  0  0  0  0  0  0  0  0  0
   14.6387    8.6906   14.2289 Cl  0  0  0  0  0  0  0  0  0  0  0  0
   16.1157   10.1761   12.5502 C   0  0  0  0  0  0  0  0  0  0  0  0
   16.9544   14.2208   13.1394 C   0  0  0  0  0  0  0  0  0  0  0  0
   17.5003   15.1686   14.2148 C   0  0  0  0  0  0  0  0  0  0  0  0
   18.9543   15.4778   13.8670 C   0  0  0  0  0  0  0  0  0  0  0  0
  1  2  1  0
  2  3  1  0
  3  4  2  0
  4  5  1  0
  5  6  2  0
  6  7  1  0
  7  8  2  0
  8  9  1  0
  9 10  1  0
 10 11  2  0
 11 12  1  0
 12 13  1  0
 12 14  2  0
 14 15  1  0
 15 16  1  0
 14 17  1  0
 17 18  1  0
 17 19  2  0
  7 20  1  0
 20 21  1  0
 21 22  1  0
  8  3  1  0
 19 10  1  0
 22  6  1  0
M  END
>  <original ID>  (53) 
SZTZSZPNVMEEFR-UHFFFAOYSA-N

>  <generation_date>  (53) 
None

>  <alias>  (53) 
None

>  <original SMILES>  (53) 
COc1ccc2c(c1Nc1cc(Cl)c(OC)c(Cl)c1)CCC2

>  <HIPPO ID>  (53) 
21196

>  <tags>  (53) 
[]

>  <ref_pdb>  (53) 
c0270a

>  <method>  (53) 
None

>  <ref_url>  (53) 
None

>  <inchikey>  (53) 
SZTZSZPNVMEEFR-UHFFFAOYSA-N

>  <submitter_email>  (53) 
None

>  <ref_mols>  (53) 
c0935a,c1116a

>  <submitter_name>  (53) 
None

$$$$
DIIMHKDUMZCXPI-UHFFFAOYSA-N
     RDKit          3D

 23 24  0  0  0  0  0  0  0  0999 V2000
   13.2371    6.1652   10.6763 C   0  0  0  0  0  0  0  0  0  0  0  0
   13.7149    6.7974   11.8664 O   0  0  0  0  0  0  0  0  0  0  0  0
   14.5360    7.8762   11.6986 C   0  0  0  0  0  0  0  0  0  0  0  0
   14.9688    8.3392   10.4796 C   0  0  0  0  0  0  0  0  0  0  0  0
   15.6512    9.5569   10.4133 C   0  0  0  0  0  0  0  0  0  0  0  0
   15.9423   10.0041    9.0893 C   0  0  0  0  0  0  0  0  0  0  0  0
   16.3295    9.1686    8.2970 O   0  0  0  0  0  0  0  0  0  0  0  0
   15.9539   10.3394   11.5169 C   0  0  0  0  0  0  0  0  0  0  0  0
   16.6105   11.6120   11.4663 N   0  0  0  0  0  0  0  0  0  0  0  0
   18.0200   11.8570   11.4127 C   0  0  0  0  0  0  0  0  0  0  0  0
   18.8543   11.0577   10.6257 C   0  0  0  0  0  0  0  0  0  0  0  0
   20.2417   11.2686   10.5627 C   0  0  0  0  0  0  0  0  0  0  0  0
   20.8228   12.3055   11.2706 C   0  0  0  0  0  0  0  0  0  0  0  0
   22.1687   12.4939   11.2745 O   0  0  0  0  0  0  0  0  0  0  0  0
   20.0338   13.1756   12.0016 C   0  0  0  0  0  0  0  0  0  0  0  0
   18.6439   12.9619   12.0519 C   0  0  0  0  0  0  0  0  0  0  0  0
   17.8759   13.8829   12.8807 N   0  0  0  0  0  4  0  0  0  0  0  0
   18.2135   15.0730   12.8931 O   0  0  0  0  0  0  0  0  0  0  0  0
   16.9336   13.4073   13.5318 O   0  0  0  0  0  1  0  0  0  0  0  0
   15.5901    9.8053   12.7593 C   0  0  0  0  0  0  0  0  0  0  0  0
   15.9469   10.5905   13.8219 O   0  0  0  0  0  0  0  0  0  0  0  0
   15.9309    9.9710   15.0934 C   0  0  0  0  0  0  0  0  0  0  0  0
   14.8830    8.5930   12.8483 C   0  0  0  0  0  0  0  0  0  0  0  0
  1  2  1  0
  2  3  1  0
  3  4  2  0
  4  5  1  0
  5  6  1  0
  6  7  2  0
  5  8  2  0
  8  9  1  0
  9 10  1  0
 10 11  2  0
 11 12  1  0
 12 13  2  0
 13 14  1  0
 13 15  1  0
 15 16  2  0
 16 17  1  0
 17 18  2  0
 17 19  1  0
  8 20  1  0
 20 21  1  0
 21 22  1  0
 20 23  2  0
 23  3  1  0
 16 10  1  0
M  CHG  2  17   1  19  -1
M  END
>  <original ID>  (54) 
DIIMHKDUMZCXPI-UHFFFAOYSA-N

>  <generation_date>  (54) 
None

>  <alias>  (54) 
None

>  <original SMILES>  (54) 
COc1cc(C=O)c(Nc2ccc(O)cc2[N+](=O)[O-])c(OC)c1

>  <HIPPO ID>  (54) 
21548

>  <tags>  (54) 
[]

>  <ref_pdb>  (54) 
c0270a

>  <method>  (54) 
None

>  <ref_url>  (54) 
None

>  <inchikey>  (54) 
DIIMHKDUMZCXPI-UHFFFAOYSA-N

>  <submitter_email>  (54) 
None

>  <ref_mols>  (54) 
c0935a,c1116a

>  <submitter_name>  (54) 
None

$$$$
DFHRHPPGGLHUHQ-UHFFFAOYSA-N
     RDKit          3D

 23 24  0  0  0  0  0  0  0  0999 V2000
   13.1256    6.3226   10.8029 C   0  0  0  0  0  0  0  0  0  0  0  0
   13.6987    6.9151   11.9700 O   0  0  0  0  0  0  0  0  0  0  0  0
   14.5476    7.9670   11.7718 C   0  0  0  0  0  0  0  0  0  0  0  0
   15.0053    8.3708   10.5416 C   0  0  0  0  0  0  0  0  0  0  0  0
   15.6912    9.5837   10.4360 C   0  0  0  0  0  0  0  0  0  0  0  0
   15.9613    9.9973    9.0955 C   0  0  0  0  0  0  0  0  0  0  0  0
   16.3206    9.1440    8.3093 O   0  0  0  0  0  0  0  0  0  0  0  0
   15.9896   10.4070   11.5128 C   0  0  0  0  0  0  0  0  0  0  0  0
   16.6736   11.6602   11.4189 N   0  0  0  0  0  0  0  0  0  0  0  0
   18.0849   11.8474   11.3663 C   0  0  0  0  0  0  0  0  0  0  0  0
   18.9109   11.0558   10.5767 C   0  0  0  0  0  0  0  0  0  0  0  0
   20.2983   11.2424   10.5556 C   0  0  0  0  0  0  0  0  0  0  0  0
   20.8922   12.2212   11.3421 C   0  0  0  0  0  0  0  0  0  0  0  0
   22.2520   12.3252   11.3302 O   0  0  0  0  0  0  0  0  0  0  0  0
   20.0938   13.0633   12.1220 C   0  0  0  0  0  0  0  0  0  0  0  0
   20.7219   14.0626   13.0340 C   0  0  0  0  0  0  0  0  0  0  0  0
   21.9015   14.2436   13.2623 O   0  0  0  0  0  0  0  0  0  0  0  0
   19.8050   14.8404   13.6503 O   0  0  0  0  0  0  0  0  0  0  0  0
   18.6867   12.9004   12.0846 C   0  0  0  0  0  0  0  0  0  0  0  0
   15.6067    9.9283   12.7709 C   0  0  0  0  0  0  0  0  0  0  0  0
   15.9505   10.7552   13.8094 O   0  0  0  0  0  0  0  0  0  0  0  0
   15.9528   10.1569   15.0926 C   0  0  0  0  0  0  0  0  0  0  0  0
   14.8869    8.7263   12.8973 C   0  0  0  0  0  0  0  0  0  0  0  0
  1  2  1  0
  2  3  1  0
  3  4  2  0
  4  5  1  0
  5  6  1  0
  6  7  2  0
  5  8  2  0
  8  9  1  0
  9 10  1  0
 10 11  2  0
 11 12  1  0
 12 13  2  0
 13 14  1  0
 13 15  1  0
 15 16  1  0
 16 17  2  0
 16 18  1  0
 15 19  2  0
  8 20  1  0
 20 21  1  0
 21 22  1  0
 20 23  2  0
 23  3  1  0
 19 10  1  0
M  END
>  <original ID>  (55) 
DFHRHPPGGLHUHQ-UHFFFAOYSA-N

>  <generation_date>  (55) 
None

>  <alias>  (55) 
None

>  <original SMILES>  (55) 
COc1cc(C=O)c(Nc2ccc(O)c(C(=O)O)c2)c(OC)c1

>  <HIPPO ID>  (55) 
21549

>  <tags>  (55) 
[]

>  <ref_pdb>  (55) 
c0270a

>  <method>  (55) 
None

>  <ref_url>  (55) 
None

>  <inchikey>  (55) 
DFHRHPPGGLHUHQ-UHFFFAOYSA-N

>  <submitter_email>  (55) 
None

>  <ref_mols>  (55) 
c0935a,c1116a

>  <submitter_name>  (55) 
None

$$$$
NRZBFDDRKDISHV-UHFFFAOYSA-N
     RDKit          3D

 23 24  0  0  0  0  0  0  0  0999 V2000
   13.2779    6.5343   10.7499 C   0  0  0  0  0  0  0  0  0  0  0  0
   13.7714    7.3084   11.8473 O   0  0  0  0  0  0  0  0  0  0  0  0
   14.6525    8.3187   11.5619 C   0  0  0  0  0  0  0  0  0  0  0  0
   15.1236    8.5574   10.2942 C   0  0  0  0  0  0  0  0  0  0  0  0
   16.0562    9.5666   10.0762 C   0  0  0  0  0  0  0  0  0  0  0  0
   16.4080    9.5946    8.7671 O   0  0  0  0  0  0  0  0  0  0  0  0
   16.6012   10.3879   11.0927 C   0  0  0  0  0  0  0  0  0  0  0  0
   17.6775   11.2650   10.7969 N   0  0  0  0  0  0  0  0  0  0  0  0
   18.5298   12.2382   11.4149 C   0  0  0  0  0  0  0  0  0  0  0  0
   19.8978   12.1977   11.0114 C   0  0  0  0  0  0  0  0  0  0  0  0
   20.2897   11.0951   10.2915 O   0  0  0  0  0  0  0  0  0  0  0  0
   21.6530   10.7615   10.5516 C   0  0  0  0  0  0  0  0  0  0  0  0
   20.8516   13.1753   11.3497 C   0  0  0  0  0  0  0  0  0  0  0  0
   20.5375   14.1559   12.2474 C   0  0  0  0  0  0  0  0  0  0  0  0
   19.2543   14.1729   12.7457 C   0  0  0  0  0  0  0  0  0  0  0  0
   18.2328   13.2586   12.3287 C   0  0  0  0  0  0  0  0  0  0  0  0
   16.9182   13.5421   12.9750 C   0  0  0  0  0  0  0  0  0  0  0  0
   16.6956   12.7336   14.0475 F   0  0  0  0  0  0  0  0  0  0  0  0
   15.8561   13.4463   12.1488 F   0  0  0  0  0  0  0  0  0  0  0  0
   16.8650   14.8091   13.4903 F   0  0  0  0  0  0  0  0  0  0  0  0
   16.0408   10.2062   12.3500 C   0  0  0  0  0  0  0  0  0  0  0  0
   15.0904    9.1801   12.5834 C   0  0  0  0  0  0  0  0  0  0  0  0
   14.4289    8.9990   14.3585 Br  0  0  0  0  0  0  0  0  0  0  0  0
  1  2  1  0
  2  3  1  0
  3  4  2  0
  4  5  1  0
  5  6  1  0
  5  7  2  0
  7  8  1  0
  8  9  1  0
  9 10  2  0
 10 11  1  0
 11 12  1  0
 10 13  1  0
 13 14  2  0
 14 15  1  0
 15 16  2  0
 16 17  1  0
 17 18  1  0
 17 19  1  0
 17 20  1  0
  7 21  1  0
 21 22  2  0
 22 23  1  0
 22  3  1  0
 16  9  1  0
M  END
>  <original ID>  (56) 
NRZBFDDRKDISHV-UHFFFAOYSA-N

>  <generation_date>  (56) 
None

>  <alias>  (56) 
None

>  <original SMILES>  (56) 
COc1cc(O)c(Nc2c(OC)cccc2C(F)(F)F)cc1Br

>  <HIPPO ID>  (56) 
21686

>  <tags>  (56) 
[]

>  <ref_pdb>  (56) 
c0270a

>  <method>  (56) 
None

>  <ref_url>  (56) 
None

>  <inchikey>  (56) 
NRZBFDDRKDISHV-UHFFFAOYSA-N

>  <submitter_email>  (56) 
None

>  <ref_mols>  (56) 
c0935a,c1116a

>  <submitter_name>  (56) 
None

$$$$
COBDCTBSSWBFEG-UHFFFAOYSA-N
     RDKit          3D

 23 24  0  0  0  0  0  0  0  0999 V2000
   21.6266   10.8178   10.5618 C   0  0  0  0  0  0  0  0  0  0  0  0
   20.2669   11.1978   10.3677 O   0  0  0  0  0  0  0  0  0  0  0  0
   19.9187   12.2834   11.1362 C   0  0  0  0  0  0  0  0  0  0  0  0
   20.8966   13.2194   11.5117 C   0  0  0  0  0  0  0  0  0  0  0  0
   20.5847   14.2157   12.3952 C   0  0  0  0  0  0  0  0  0  0  0  0
   19.2901   14.2698   12.8661 C   0  0  0  0  0  0  0  0  0  0  0  0
   18.2599   13.3600   12.4617 C   0  0  0  0  0  0  0  0  0  0  0  0
   16.9545   13.7158   13.0921 C   0  0  0  0  0  0  0  0  0  0  0  0
   17.1242   13.9706   14.4275 F   0  0  0  0  0  0  0  0  0  0  0  0
   16.4481   14.8648   12.5769 F   0  0  0  0  0  0  0  0  0  0  0  0
   15.9724   12.7966   13.0369 F   0  0  0  0  0  0  0  0  0  0  0  0
   18.5468   12.3615   11.5293 C   0  0  0  0  0  0  0  0  0  0  0  0
   17.6829   11.4352   10.8839 N   0  0  0  0  0  0  0  0  0  0  0  0
   16.6250   10.5319   11.1126 C   0  0  0  0  0  0  0  0  0  0  0  0
   16.0740    9.8951    9.9818 C   0  0  0  0  0  0  0  0  0  0  0  0
   15.1194    8.8873   10.0610 C   0  0  0  0  0  0  0  0  0  0  0  0
   14.6490    8.3847    8.9145 F   0  0  0  0  0  0  0  0  0  0  0  0
   14.6739    8.4437   11.2870 C   0  0  0  0  0  0  0  0  0  0  0  0
   13.8228    7.3937   11.5078 O   0  0  0  0  0  0  0  0  0  0  0  0
   13.4858    6.5796   10.3861 C   0  0  0  0  0  0  0  0  0  0  0  0
   15.1058    9.1635   12.4078 C   0  0  0  0  0  0  0  0  0  0  0  0
   14.5800    8.8766   13.6092 F   0  0  0  0  0  0  0  0  0  0  0  0
   16.0678   10.1896   12.3332 C   0  0  0  0  0  0  0  0  0  0  0  0
  1  2  1  0
  2  3  1  0
  3  4  2  0
  4  5  1  0
  5  6  2  0
  6  7  1  0
  7  8  1  0
  8  9  1  0
  8 10  1  0
  8 11  1  0
  7 12  2  0
 12 13  1  0
 13 14  1  0
 14 15  2  0
 15 16  1  0
 16 17  1  0
 16 18  2  0
 18 19  1  0
 19 20  1  0
 18 21  1  0
 21 22  1  0
 21 23  2  0
 12  3  1  0
 23 14  1  0
M  END
>  <original ID>  (57) 
COBDCTBSSWBFEG-UHFFFAOYSA-N

>  <generation_date>  (57) 
None

>  <alias>  (57) 
None

>  <original SMILES>  (57) 
COc1cccc(C(F)(F)F)c1Nc1cc(F)c(OC)c(F)c1

>  <HIPPO ID>  (57) 
21687

>  <tags>  (57) 
[]

>  <ref_pdb>  (57) 
c0270a

>  <method>  (57) 
None

>  <ref_url>  (57) 
None

>  <inchikey>  (57) 
COBDCTBSSWBFEG-UHFFFAOYSA-N

>  <submitter_email>  (57) 
None

>  <ref_mols>  (57) 
c0935a,c1116a

>  <submitter_name>  (57) 
None

$$$$
IZKYVPLUSWEULQ-UHFFFAOYSA-N
     RDKit          3D

 23 24  0  0  0  0  0  0  0  0999 V2000
   22.9386   12.7677   11.5766 C   0  0  0  0  0  0  0  0  0  0  0  0
   21.9281   13.5485   12.2349 O   0  0  0  0  0  0  0  0  0  0  0  0
   20.6314   13.1827   12.0311 C   0  0  0  0  0  0  0  0  0  0  0  0
   20.2588   12.1579   11.2110 C   0  0  0  0  0  0  0  0  0  0  0  0
   18.9129   11.7977   11.1303 C   0  0  0  0  0  0  0  0  0  0  0  0
   18.6374   10.3903   10.0424 Br  0  0  0  0  0  0  0  0  0  0  0  0
   17.8510   12.3747   11.8049 C   0  0  0  0  0  0  0  0  0  0  0  0
   16.4680   11.9645   11.6148 N   0  0  0  0  0  0  0  0  0  0  0  0
   15.8852   10.6308   11.6884 C   0  0  0  0  0  0  0  0  0  0  0  0
   15.5335    9.8193   10.5929 C   0  0  0  0  0  0  0  0  0  0  0  0
   15.7540   10.1699    9.2112 C   0  0  0  0  0  0  0  0  0  0  0  0
   15.9251    9.2678    8.4082 O   0  0  0  0  0  0  0  0  0  0  0  0
   14.9230    8.5594   10.7126 C   0  0  0  0  0  0  0  0  0  0  0  0
   14.5925    8.0696   11.9465 C   0  0  0  0  0  0  0  0  0  0  0  0
   13.8507    6.9392   12.1459 O   0  0  0  0  0  0  0  0  0  0  0  0
   13.4256    6.2188   10.9815 C   0  0  0  0  0  0  0  0  0  0  0  0
   14.9603    8.8186   13.0678 C   0  0  0  0  0  0  0  0  0  0  0  0
   15.6070   10.0726   12.9464 C   0  0  0  0  0  0  0  0  0  0  0  0
   15.9725   10.8664   14.0026 O   0  0  0  0  0  0  0  0  0  0  0  0
   15.8721   10.2847   15.2909 C   0  0  0  0  0  0  0  0  0  0  0  0
   18.2446   13.4839   12.5651 C   0  0  0  0  0  0  0  0  0  0  0  0
   16.9601   14.4802   13.5367 Br  0  0  0  0  0  0  0  0  0  0  0  0
   19.6114   13.8719   12.6909 C   0  0  0  0  0  0  0  0  0  0  0  0
  1  2  1  0
  2  3  1  0
  3  4  2  0
  4  5  1  0
  5  6  1  0
  5  7  2  0
  7  8  1  0
  8  9  1  0
  9 10  2  0
 10 11  1  0
 11 12  2  0
 10 13  1  0
 13 14  2  0
 14 15  1  0
 15 16  1  0
 14 17  1  0
 17 18  2  0
 18 19  1  0
 19 20  1  0
  7 21  1  0
 21 22  1  0
 21 23  2  0
 23  3  1  0
 18  9  1  0
M  END
>  <original ID>  (58) 
IZKYVPLUSWEULQ-UHFFFAOYSA-N

>  <generation_date>  (58) 
None

>  <alias>  (58) 
None

>  <original SMILES>  (58) 
COc1cc(Br)c(Nc2c(C=O)cc(OC)cc2OC)c(Br)c1

>  <HIPPO ID>  (58) 
21700

>  <tags>  (58) 
[]

>  <ref_pdb>  (58) 
c0270a

>  <method>  (58) 
None

>  <ref_url>  (58) 
None

>  <inchikey>  (58) 
IZKYVPLUSWEULQ-UHFFFAOYSA-N

>  <submitter_email>  (58) 
None

>  <ref_mols>  (58) 
c0935a,c1116a

>  <submitter_name>  (58) 
None

$$$$
OSWOWJSIRCFJDC-UHFFFAOYSA-N
     RDKit          3D

 23 24  0  0  0  0  0  0  0  0999 V2000
   22.7694   13.6307   12.6490 C   0  0  0  0  0  0  0  0  0  0  0  0
   22.1319   12.8183   11.6790 O   0  0  0  0  0  0  0  0  0  0  0  0
   20.7723   12.7541   11.7122 C   0  0  0  0  0  0  0  0  0  0  0  0
   20.2512   11.7601   10.9111 C   0  0  0  0  0  0  0  0  0  0  0  0
   18.8696   11.5208   10.8852 C   0  0  0  0  0  0  0  0  0  0  0  0
   18.5148   10.3891   10.0660 C   0  0  0  0  0  0  0  0  0  0  0  0
   17.6985    9.5569   10.4121 O   0  0  0  0  0  0  0  0  0  0  0  0
   17.9497   12.2646   11.6200 C   0  0  0  0  0  0  0  0  0  0  0  0
   16.5208   12.1386   11.5425 N   0  0  0  0  0  0  0  0  0  0  0  0
   15.7510   10.9509   11.4061 C   0  0  0  0  0  0  0  0  0  0  0  0
   15.3383   10.4610   10.1540 C   0  0  0  0  0  0  0  0  0  0  0  0
   14.7459    9.1988   10.0350 C   0  0  0  0  0  0  0  0  0  0  0  0
   14.3807    8.7642    8.8183 F   0  0  0  0  0  0  0  0  0  0  0  0
   14.4915    8.4135   11.1574 C   0  0  0  0  0  0  0  0  0  0  0  0
   13.8097    7.2505   10.9213 O   0  0  0  0  0  0  0  0  0  0  0  0
   13.4557    6.4381   12.0302 C   0  0  0  0  0  0  0  0  0  0  0  0
   14.8431    8.9413   12.4022 C   0  0  0  0  0  0  0  0  0  0  0  0
   14.4975    8.3237   13.5401 F   0  0  0  0  0  0  0  0  0  0  0  0
   15.4727   10.1805   12.5330 C   0  0  0  0  0  0  0  0  0  0  0  0
   18.5001   13.3167   12.3902 C   0  0  0  0  0  0  0  0  0  0  0  0
   17.5752   14.0264   13.1238 O   0  0  0  0  0  0  0  0  0  0  0  0
   18.0127   15.2672   13.6650 C   0  0  0  0  0  0  0  0  0  0  0  0
   19.8951   13.5451   12.4480 C   0  0  0  0  0  0  0  0  0  0  0  0
  1  2  1  0
  2  3  1  0
  3  4  2  0
  4  5  1  0
  5  6  1  0
  6  7  2  0
  5  8  2  0
  8  9  1  0
  9 10  1  0
 10 11  2  0
 11 12  1  0
 12 13  1  0
 12 14  2  0
 14 15  1  0
 15 16  1  0
 14 17  1  0
 17 18  1  0
 17 19  2  0
  8 20  1  0
 20 21  1  0
 21 22  1  0
 20 23  2  0
 23  3  1  0
 19 10  1  0
M  END
>  <original ID>  (59) 
OSWOWJSIRCFJDC-UHFFFAOYSA-N

>  <generation_date>  (59) 
None

>  <alias>  (59) 
None

>  <original SMILES>  (59) 
COc1cc(C=O)c(Nc2cc(F)c(OC)c(F)c2)c(OC)c1

>  <HIPPO ID>  (59) 
21701

>  <tags>  (59) 
[]

>  <ref_pdb>  (59) 
c0270a

>  <method>  (59) 
None

>  <ref_url>  (59) 
None

>  <inchikey>  (59) 
OSWOWJSIRCFJDC-UHFFFAOYSA-N

>  <submitter_email>  (59) 
None

>  <ref_mols>  (59) 
c0935a,c1116a

>  <submitter_name>  (59) 
None

$$$$
IYZPURSELLNFPS-UHFFFAOYSA-N
     RDKit          3D

 23 24  0  0  0  0  0  0  0  0999 V2000
   21.6682   10.8245   10.5921 C   0  0  0  0  0  0  0  0  0  0  0  0
   20.3142   11.2101   10.3777 O   0  0  0  0  0  0  0  0  0  0  0  0
   19.9571   12.2968   11.1420 C   0  0  0  0  0  0  0  0  0  0  0  0
   20.9282   13.2352   11.5259 C   0  0  0  0  0  0  0  0  0  0  0  0
   20.6024   14.2307   12.4057 C   0  0  0  0  0  0  0  0  0  0  0  0
   19.3005   14.2852   12.8571 C   0  0  0  0  0  0  0  0  0  0  0  0
   18.2755   13.3777   12.4345 C   0  0  0  0  0  0  0  0  0  0  0  0
   16.9627   13.7399   13.0450 C   0  0  0  0  0  0  0  0  0  0  0  0
   16.5713   14.9872   12.6682 F   0  0  0  0  0  0  0  0  0  0  0  0
   15.9194   12.9275   12.8028 F   0  0  0  0  0  0  0  0  0  0  0  0
   17.0762   13.8029   14.4065 F   0  0  0  0  0  0  0  0  0  0  0  0
   18.5799   12.3695   11.5205 C   0  0  0  0  0  0  0  0  0  0  0  0
   17.7438   11.4098   10.8913 N   0  0  0  0  0  0  0  0  0  0  0  0
   16.6853   10.5074   11.1189 C   0  0  0  0  0  0  0  0  0  0  0  0
   16.2531    9.7518   10.0053 C   0  0  0  0  0  0  0  0  0  0  0  0
   15.2933    8.7478   10.0785 C   0  0  0  0  0  0  0  0  0  0  0  0
   14.7270    8.4568   11.3009 C   0  0  0  0  0  0  0  0  0  0  0  0
   13.8277    7.4287   11.3584 O   0  0  0  0  0  0  0  0  0  0  0  0
   15.0627    9.2387   12.4182 C   0  0  0  0  0  0  0  0  0  0  0  0
   14.3910    9.0812   13.7256 C   0  0  0  0  0  0  0  0  0  0  0  0
   14.1045    9.9843   14.4910 O   0  0  0  0  0  0  0  0  0  0  0  0
   14.1485    7.7997   14.0458 O   0  0  0  0  0  0  0  0  0  0  0  0
   16.0346   10.2643   12.3199 C   0  0  0  0  0  0  0  0  0  0  0  0
  1  2  1  0
  2  3  1  0
  3  4  2  0
  4  5  1  0
  5  6  2  0
  6  7  1  0
  7  8  1  0
  8  9  1  0
  8 10  1  0
  8 11  1  0
  7 12  2  0
 12 13  1  0
 13 14  1  0
 14 15  2  0
 15 16  1  0
 16 17  2  0
 17 18  1  0
 17 19  1  0
 19 20  1  0
 20 21  2  0
 20 22  1  0
 19 23  2  0
 12  3  1  0
 23 14  1  0
M  END
>  <original ID>  (60) 
IYZPURSELLNFPS-UHFFFAOYSA-N

>  <generation_date>  (60) 
None

>  <alias>  (60) 
None

>  <original SMILES>  (60) 
COc1cccc(C(F)(F)F)c1Nc1ccc(O)c(C(=O)O)c1

>  <HIPPO ID>  (60) 
21788

>  <tags>  (60) 
[]

>  <ref_pdb>  (60) 
c0270a

>  <method>  (60) 
None

>  <ref_url>  (60) 
None

>  <inchikey>  (60) 
IYZPURSELLNFPS-UHFFFAOYSA-N

>  <submitter_email>  (60) 
None

>  <ref_mols>  (60) 
c0935a,c1116a

>  <submitter_name>  (60) 
None

$$$$
ZFWHJGGMQYUIBR-UHFFFAOYSA-N
     RDKit          3D

 23 24  0  0  0  0  0  0  0  0999 V2000
   21.2333   10.7395   10.1346 C   0  0  0  0  0  0  0  0  0  0  0  0
   19.8987   11.1283   10.4005 O   0  0  0  0  0  0  0  0  0  0  0  0
   19.7801   12.1233   11.3254 C   0  0  0  0  0  0  0  0  0  0  0  0
   20.9068   12.7713   11.8645 C   0  0  0  0  0  0  0  0  0  0  0  0
   20.7525   13.8006   12.7565 C   0  0  0  0  0  0  0  0  0  0  0  0
   19.4696   14.1749   13.0934 C   0  0  0  0  0  0  0  0  0  0  0  0
   18.3091   13.5264   12.5772 C   0  0  0  0  0  0  0  0  0  0  0  0
   17.0304   14.1351   13.0538 C   0  0  0  0  0  0  0  0  0  0  0  0
   16.5606   13.6020   14.2084 F   0  0  0  0  0  0  0  0  0  0  0  0
   16.0274   14.0795   12.1516 F   0  0  0  0  0  0  0  0  0  0  0  0
   17.1925   15.4602   13.3432 F   0  0  0  0  0  0  0  0  0  0  0  0
   18.4427   12.4574   11.6794 C   0  0  0  0  0  0  0  0  0  0  0  0
   17.3815   11.7696   10.9807 N   0  0  0  0  0  0  0  0  0  0  0  0
   16.5390   10.6253   11.1930 C   0  0  0  0  0  0  0  0  0  0  0  0
   16.2324    9.8639   10.0344 C   0  0  0  0  0  0  0  0  0  0  0  0
   15.3531    8.7752    9.9987 C   0  0  0  0  0  0  0  0  0  0  0  0
   14.7590    8.3610   11.1631 C   0  0  0  0  0  0  0  0  0  0  0  0
   13.9100    7.2981   11.1818 O   0  0  0  0  0  0  0  0  0  0  0  0
   14.9927    9.0671   12.3293 C   0  0  0  0  0  0  0  0  0  0  0  0
   15.8249   10.2166   12.3193 C   0  0  0  0  0  0  0  0  0  0  0  0
   15.8548   10.9412   13.5554 N   0  0  0  0  0  4  0  0  0  0  0  0
   16.9622   11.2078   14.0221 O   0  0  0  0  0  0  0  0  0  0  0  0
   14.7726   11.1684   14.1125 O   0  0  0  0  0  1  0  0  0  0  0  0
  1  2  1  0
  2  3  1  0
  3  4  2  0
  4  5  1  0
  5  6  2  0
  6  7  1  0
  7  8  1  0
  8  9  1  0
  8 10  1  0
  8 11  1  0
  7 12  2  0
 12 13  1  0
 13 14  1  0
 14 15  2  0
 15 16  1  0
 16 17  2  0
 17 18  1  0
 17 19  1  0
 19 20  2  0
 20 21  1  0
 21 22  2  0
 21 23  1  0
 12  3  1  0
 20 14  1  0
M  CHG  2  21   1  23  -1
M  END
>  <original ID>  (61) 
ZFWHJGGMQYUIBR-UHFFFAOYSA-N

>  <generation_date>  (61) 
None

>  <alias>  (61) 
None

>  <original SMILES>  (61) 
COc1cccc(C(F)(F)F)c1Nc1ccc(O)cc1[N+](=O)[O-]

>  <HIPPO ID>  (61) 
21789

>  <tags>  (61) 
[]

>  <ref_pdb>  (61) 
c0270a

>  <method>  (61) 
None

>  <ref_url>  (61) 
None

>  <inchikey>  (61) 
ZFWHJGGMQYUIBR-UHFFFAOYSA-N

>  <submitter_email>  (61) 
None

>  <ref_mols>  (61) 
c0935a,c1116a

>  <submitter_name>  (61) 
None

$$$$
QYBUYQFKNBNTJM-ZCFIWIBFSA-N
     RDKit          3D

 19 20  0  0  0  0  0  0  0  0999 V2000
    9.0130    8.7799   16.1298 N   0  0  0  0  0  0  0  0  0  0  0  0
    9.1735    7.7044   15.3448 C   0  0  0  0  0  0  0  0  0  0  0  0
   10.1275    7.7665   14.4699 N   0  0  0  0  0  0  0  0  0  0  0  0
   10.3315    6.6693   13.6902 C   0  0  0  0  0  0  0  0  0  0  0  0
    9.6595    5.5227   13.8008 C   0  0  0  0  0  0  0  0  0  0  0  0
    9.9955    4.3777   12.9779 C   0  0  0  0  0  0  0  0  0  0  0  0
    9.3722    3.3363   13.0119 O   0  0  0  0  0  0  0  0  0  0  0  0
   11.0922    4.5189   12.2227 O   0  0  0  0  0  0  0  0  0  0  0  0
    8.6203    5.4282   14.8461 C   0  0  0  0  0  0  0  0  0  0  0  0
    8.0963    4.3518   15.1355 O   0  0  0  0  0  0  0  0  0  0  0  0
    8.3801    6.5965   15.5474 N   0  0  0  0  0  0  0  0  0  0  0  0
    7.6378    6.4799   16.7814 C   0  0  0  0  0  0  0  0  0  0  0  0
    6.1341    6.7235   16.7670 C   0  0  1  0  0  0  0  0  0  0  0  0
    5.6806    6.7900   18.2291 C   0  0  0  0  0  0  0  0  0  0  0  0
    5.9897    8.1161   18.8391 C   0  0  0  0  0  0  0  0  0  0  0  0
    5.5224    9.1841   17.5395 S   0  0  0  0  0  6  0  0  0  0  0  0
    4.1744    9.6291   17.7769 O   0  0  0  0  0  0  0  0  0  0  0  0
    6.6050   10.1144   17.4344 O   0  0  0  0  0  0  0  0  0  0  0  0
    5.6225    8.0276   16.1779 C   0  0  0  0  0  0  0  0  0  0  0  0
  1  2  1  0
  2  3  2  0
  3  4  1  0
  4  5  2  0
  5  6  1  0
  6  7  2  0
  6  8  1  0
  5  9  1  0
  9 10  2  0
  9 11  1  0
 11 12  1  0
 13 12  1  1
 13 14  1  0
 14 15  1  0
 15 16  1  0
 16 17  2  0
 16 18  2  0
 16 19  1  0
 11  2  1  0
 19 13  1  0
M  END
>  <original ID>  (62) 
QYBUYQFKNBNTJM-ZCFIWIBFSA-N

>  <generation_date>  (62) 
None

>  <alias>  (62) 
None

>  <original SMILES>  (62) 
Nc1ncc(C(=O)O)c(=O)n1C[C@H]1CCS(=O)(=O)C1

>  <HIPPO ID>  (62) 
31809

>  <tags>  (62) 
[]

>  <ref_pdb>  (62) 
c0300a

>  <method>  (62) 
None

>  <ref_url>  (62) 
None

>  <inchikey>  (62) 
QYBUYQFKNBNTJM-ZCFIWIBFSA-N

>  <submitter_email>  (62) 
None

>  <ref_mols>  (62) 
c0314a,c1182a

>  <submitter_name>  (62) 
None

$$$$
HVABQXYJRRESOU-MRVPVSSYSA-N
     RDKit          3D

 20 22  0  0  0  0  0  0  0  0999 V2000
   12.0117    6.8346   13.6783 O   0  0  0  0  0  0  0  0  0  0  0  0
   11.0595    6.6653   14.4260 C   0  0  0  0  0  0  0  0  0  0  0  0
   10.9364    7.3591   15.5943 N   0  0  0  0  0  0  0  0  0  0  0  0
    9.8029    7.4685   16.3409 C   0  0  0  0  0  0  0  0  0  0  0  0
    9.7566    8.2849   17.2505 O   0  0  0  0  0  0  0  0  0  0  0  0
    8.7646    6.6181   16.0400 N   0  0  0  0  0  0  0  0  0  0  0  0
    7.5586    6.6889   16.8361 C   0  0  0  0  0  0  0  0  0  0  0  0
    6.3473    7.3096   16.1306 C   0  0  1  0  0  0  0  0  0  0  0  0
    5.0994    6.8095   16.8226 C   0  0  0  0  0  0  0  0  0  0  0  0
    5.0800    7.4468   18.2088 C   0  0  0  0  0  0  0  0  0  0  0  0
    5.5670    9.1069   17.8970 S   0  0  0  0  0  6  0  0  0  0  0  0
    4.3689    9.9085   17.7908 O   0  0  0  0  0  0  0  0  0  0  0  0
    6.6504    9.4752   18.7710 O   0  0  0  0  0  0  0  0  0  0  0  0
    6.2265    8.8039   16.2837 C   0  0  0  0  0  0  0  0  0  0  0  0
    8.8350    5.7428   14.9413 C   0  0  0  0  0  0  0  0  0  0  0  0
    7.7570    4.9652   14.5491 C   0  0  0  0  0  0  0  0  0  0  0  0
    7.7679    4.4869   13.2613 C   0  0  0  0  0  0  0  0  0  0  0  0
    8.9445    4.5417   12.5285 C   0  0  0  0  0  0  0  0  0  0  0  0
   10.0705    5.0757   12.9799 N   0  0  0  0  0  0  0  0  0  0  0  0
    9.9563    5.7531   14.1205 C   0  0  0  0  0  0  0  0  0  0  0  0
  1  2  2  0
  2  3  1  0
  3  4  1  0
  4  5  2  0
  4  6  1  0
  6  7  1  0
  8  7  1  1
  8  9  1  0
  9 10  1  0
 10 11  1  0
 11 12  2  0
 11 13  2  0
 11 14  1  0
  6 15  1  0
 15 16  2  0
 16 17  1  0
 17 18  2  0
 18 19  1  0
 19 20  2  0
 20  2  1  0
 14  8  1  0
 20 15  1  0
M  END
>  <original ID>  (63) 
HVABQXYJRRESOU-MRVPVSSYSA-N

>  <generation_date>  (63) 
None

>  <alias>  (63) 
None

>  <original SMILES>  (63) 
O=c1[nH]c(=O)n(C[C@H]2CCS(=O)(=O)C2)c2cccnc12

>  <HIPPO ID>  (63) 
32254

>  <tags>  (63) 
[]

>  <ref_pdb>  (63) 
c0300a

>  <method>  (63) 
None

>  <ref_url>  (63) 
None

>  <inchikey>  (63) 
HVABQXYJRRESOU-MRVPVSSYSA-N

>  <submitter_email>  (63) 
None

>  <ref_mols>  (63) 
c0314a,c1182a

>  <submitter_name>  (63) 
None

$$$$
SCBDOQLNDTXNOF-ZCFIWIBFSA-N
     RDKit          3D

 20 22  0  0  0  0  0  0  0  0999 V2000
    6.5211    8.7451   15.4507 O   0  0  0  0  0  0  0  0  0  0  0  0
    6.9650    7.7364   14.9260 C   0  0  0  0  0  0  0  0  0  0  0  0
    6.3212    6.5278   14.9241 N   0  0  0  0  0  0  0  0  0  0  0  0
    7.1756    5.5757   15.3940 C   0  0  0  0  0  0  0  0  0  0  0  0
    7.1785    5.5481   16.7700 N   0  0  0  0  0  0  0  0  0  0  0  0
    8.2067    6.4363   17.2491 N   0  0  0  0  0  0  0  0  0  0  0  0
    7.7802    7.7248   17.7730 C   0  0  0  0  0  0  0  0  0  0  0  0
    6.5860    7.6439   18.7126 C   0  0  1  0  0  0  0  0  0  0  0  0
    6.7971    8.6668   19.8311 C   0  0  0  0  0  0  0  0  0  0  0  0
    5.4897    8.8131   20.5438 C   0  0  0  0  0  0  0  0  0  0  0  0
    4.3427    8.8734   19.2093 S   0  0  0  0  0  6  0  0  0  0  0  0
    4.3581   10.1970   18.6271 O   0  0  0  0  0  0  0  0  0  0  0  0
    3.1324    8.2273   19.6397 O   0  0  0  0  0  0  0  0  0  0  0  0
    5.2422    7.8916   18.0618 C   0  0  0  0  0  0  0  0  0  0  0  0
    8.2621    5.2180   14.7275 N   0  0  0  0  0  0  0  0  0  0  0  0
    8.8728    6.3688   14.3221 C   0  0  0  0  0  0  0  0  0  0  0  0
   10.2059    6.5657   14.1160 N   0  0  0  0  0  0  0  0  0  0  0  0
   10.5993    7.8060   14.5104 N   0  0  0  0  0  0  0  0  0  0  0  0
    9.4389    8.4048   14.8069 C   0  0  0  0  0  0  0  0  0  0  0  0
    8.3446    7.6191   14.5405 C   0  0  0  0  0  0  0  0  0  0  0  0
  1  2  2  0
  2  3  1  0
  3  4  1  0
  4  5  1  0
  5  6  1  0
  6  7  1  0
  8  7  1  6
  8  9  1  0
  9 10  1  0
 10 11  1  0
 11 12  2  0
 11 13  2  0
 11 14  1  0
  4 15  2  0
 15 16  1  0
 16 17  1  0
 17 18  1  0
 18 19  2  0
 19 20  1  0
 20  2  1  0
 14  8  1  0
 20 16  2  0
M  END
>  <original ID>  (64) 
SCBDOQLNDTXNOF-ZCFIWIBFSA-N

>  <generation_date>  (64) 
None

>  <alias>  (64) 
None

>  <original SMILES>  (64) 
O=c1[nH]c(NNC[C@H]2CCS(=O)(=O)C2)nc2[nH]ncc12

>  <HIPPO ID>  (64) 
32280

>  <tags>  (64) 
[]

>  <ref_pdb>  (64) 
c0300a

>  <method>  (64) 
None

>  <ref_url>  (64) 
None

>  <inchikey>  (64) 
SCBDOQLNDTXNOF-ZCFIWIBFSA-N

>  <submitter_email>  (64) 
None

>  <ref_mols>  (64) 
c0314a,c1182a

>  <submitter_name>  (64) 
None

$$$$
WHPPYKIGJLVYAG-LURJTMIESA-N
     RDKit          3D

 20 22  0  0  0  0  0  0  0  0999 V2000
    9.4867    7.1685   16.3944 N   0  0  0  0  0  0  0  0  0  0  0  0
    8.0615    7.1724   16.3307 N   0  0  0  0  0  0  0  0  0  0  0  0
    7.4160    8.4823   16.2072 C   0  0  0  0  0  0  0  0  0  0  0  0
    6.5217    8.8207   17.3811 C   0  0  2  0  0  0  0  0  0  0  0  0
    7.1540    8.5156   18.7315 C   0  0  0  0  0  0  0  0  0  0  0  0
    6.1666    8.8976   19.8200 C   0  0  0  0  0  0  0  0  0  0  0  0
    4.5753    8.7308   19.0542 S   0  0  0  0  0  6  0  0  0  0  0  0
    4.0854   10.0678   18.7869 O   0  0  0  0  0  0  0  0  0  0  0  0
    3.8005    7.7584   19.7781 O   0  0  0  0  0  0  0  0  0  0  0  0
    5.1709    8.1057   17.4821 C   0  0  0  0  0  0  0  0  0  0  0  0
    7.4379    6.1710   15.6126 C   0  0  0  0  0  0  0  0  0  0  0  0
    6.1709    6.2589   15.3221 N   0  0  0  0  0  0  0  0  0  0  0  0
    5.7423    5.3560   14.4323 C   0  0  0  0  0  0  0  0  0  0  0  0
    4.4904    5.3105   13.9082 N   0  0  0  0  0  0  0  0  0  0  0  0
    4.3765    4.3917   12.9328 N   0  0  0  0  0  0  0  0  0  0  0  0
    5.5856    3.8176   12.8958 C   0  0  0  0  0  0  0  0  0  0  0  0
    6.4839    4.3992   13.7976 C   0  0  0  0  0  0  0  0  0  0  0  0
    7.8701    4.3064   14.1548 C   0  0  0  0  0  0  0  0  0  0  0  0
    8.7560    3.6446   13.6137 O   0  0  0  0  0  0  0  0  0  0  0  0
    8.2324    5.1414   15.1746 N   0  0  0  0  0  0  0  0  0  0  0  0
  1  2  1  0
  2  3  1  0
  4  3  1  6
  4  5  1  0
  5  6  1  0
  6  7  1  0
  7  8  2  0
  7  9  2  0
  7 10  1  0
  2 11  1  0
 11 12  2  0
 12 13  1  0
 13 14  1  0
 14 15  1  0
 15 16  2  0
 16 17  1  0
 17 18  1  0
 18 19  2  0
 18 20  1  0
 10  4  1  0
 20 11  1  0
 17 13  2  0
M  END
>  <original ID>  (65) 
WHPPYKIGJLVYAG-LURJTMIESA-N

>  <generation_date>  (65) 
None

>  <alias>  (65) 
None

>  <original SMILES>  (65) 
NN(C[C@@H]1CCS(=O)(=O)C1)c1nc2[nH]ncc2c(=O)[nH]1

>  <HIPPO ID>  (65) 
32281

>  <tags>  (65) 
[]

>  <ref_pdb>  (65) 
c0300a

>  <method>  (65) 
None

>  <ref_url>  (65) 
None

>  <inchikey>  (65) 
WHPPYKIGJLVYAG-LURJTMIESA-N

>  <submitter_email>  (65) 
None

>  <ref_mols>  (65) 
c0314a,c1182a

>  <submitter_name>  (65) 
None

$$$$
WHPPYKIGJLVYAG-ZCFIWIBFSA-N
     RDKit          3D

 20 22  0  0  0  0  0  0  0  0999 V2000
   10.4588    6.5785   17.1556 N   0  0  0  0  0  0  0  0  0  0  0  0
    9.4214    7.3314   16.5450 N   0  0  0  0  0  0  0  0  0  0  0  0
    8.6549    8.3222   17.3056 C   0  0  0  0  0  0  0  0  0  0  0  0
    7.3996    7.8084   18.0449 C   0  0  1  0  0  0  0  0  0  0  0  0
    7.3583    8.5566   19.3829 C   0  0  0  0  0  0  0  0  0  0  0  0
    6.0079    8.4316   20.0067 C   0  0  0  0  0  0  0  0  0  0  0  0
    4.9787    8.7322   18.6178 S   0  0  0  0  0  6  0  0  0  0  0  0
    4.9716   10.1450   18.3218 O   0  0  0  0  0  0  0  0  0  0  0  0
    3.7737    7.9896   18.8323 O   0  0  0  0  0  0  0  0  0  0  0  0
    6.0270    8.0134   17.3905 C   0  0  0  0  0  0  0  0  0  0  0  0
    8.7403    6.7453   15.5159 C   0  0  0  0  0  0  0  0  0  0  0  0
    7.6044    7.2518   15.1198 N   0  0  0  0  0  0  0  0  0  0  0  0
    6.7415    6.2821   14.7610 C   0  0  0  0  0  0  0  0  0  0  0  0
    5.4298    6.4110   14.4469 N   0  0  0  0  0  0  0  0  0  0  0  0
    4.9289    5.2700   13.9505 N   0  0  0  0  0  0  0  0  0  0  0  0
    5.8548    4.3569   14.2647 C   0  0  0  0  0  0  0  0  0  0  0  0
    6.9826    4.9399   14.8157 C   0  0  0  0  0  0  0  0  0  0  0  0
    8.2696    4.6050   15.3436 C   0  0  0  0  0  0  0  0  0  0  0  0
    8.5303    3.7033   16.1256 O   0  0  0  0  0  0  0  0  0  0  0  0
    9.1888    5.5617   14.9985 N   0  0  0  0  0  0  0  0  0  0  0  0
  1  2  1  0
  2  3  1  0
  4  3  1  6
  4  5  1  0
  5  6  1  0
  6  7  1  0
  7  8  2  0
  7  9  2  0
  7 10  1  0
  2 11  1  0
 11 12  2  0
 12 13  1  0
 13 14  1  0
 14 15  1  0
 15 16  2  0
 16 17  1  0
 17 18  1  0
 18 19  2  0
 18 20  1  0
 10  4  1  0
 20 11  1  0
 17 13  2  0
M  END
>  <original ID>  (66) 
WHPPYKIGJLVYAG-ZCFIWIBFSA-N

>  <generation_date>  (66) 
None

>  <alias>  (66) 
None

>  <original SMILES>  (66) 
NN(C[C@H]1CCS(=O)(=O)C1)c1nc2[nH]ncc2c(=O)[nH]1

>  <HIPPO ID>  (66) 
32282

>  <tags>  (66) 
[]

>  <ref_pdb>  (66) 
c0300a

>  <method>  (66) 
None

>  <ref_url>  (66) 
None

>  <inchikey>  (66) 
WHPPYKIGJLVYAG-ZCFIWIBFSA-N

>  <submitter_email>  (66) 
None

>  <ref_mols>  (66) 
c0314a,c1182a

>  <submitter_name>  (66) 
None

$$$$
WCTWLJNAMMQTJP-ZCFIWIBFSA-N
     RDKit          3D

 20 22  0  0  0  0  0  0  0  0999 V2000
    9.9682    8.2587   17.5451 N   0  0  0  0  0  0  0  0  0  0  0  0
    8.9422    8.3888   16.5556 N   0  0  0  0  0  0  0  0  0  0  0  0
    9.1000    7.4888   15.5158 C   0  0  0  0  0  0  0  0  0  0  0  0
   10.0730    7.6611   14.6536 N   0  0  0  0  0  0  0  0  0  0  0  0
   10.2132    6.6296   13.8011 C   0  0  0  0  0  0  0  0  0  0  0  0
   11.2171    6.4691   12.8952 N   0  0  0  0  0  0  0  0  0  0  0  0
   11.1270    5.3162   12.2140 N   0  0  0  0  0  0  0  0  0  0  0  0
   10.0296    4.7406   12.7105 C   0  0  0  0  0  0  0  0  0  0  0  0
    9.4536    5.4988   13.7185 C   0  0  0  0  0  0  0  0  0  0  0  0
    8.3745    5.2955   14.6235 C   0  0  0  0  0  0  0  0  0  0  0  0
    7.7613    4.2325   14.6712 O   0  0  0  0  0  0  0  0  0  0  0  0
    8.2305    6.3653   15.5139 N   0  0  0  0  0  0  0  0  0  0  0  0
    7.4005    6.1288   16.6684 C   0  0  0  0  0  0  0  0  0  0  0  0
    5.9911    6.7099   16.7389 C   0  0  1  0  0  0  0  0  0  0  0  0
    5.6434    6.8310   18.2339 C   0  0  0  0  0  0  0  0  0  0  0  0
    6.1082    8.1377   18.7790 C   0  0  0  0  0  0  0  0  0  0  0  0
    5.5447    9.2091   17.5276 S   0  0  0  0  0  6  0  0  0  0  0  0
    4.1692    9.5373   17.8071 O   0  0  0  0  0  0  0  0  0  0  0  0
    6.5325   10.2374   17.4514 O   0  0  0  0  0  0  0  0  0  0  0  0
    5.6962    8.0824   16.1486 C   0  0  0  0  0  0  0  0  0  0  0  0
  1  2  1  0
  2  3  1  0
  3  4  2  0
  4  5  1  0
  5  6  1  0
  6  7  1  0
  7  8  2  0
  8  9  1  0
  9 10  1  0
 10 11  2  0
 10 12  1  0
 12 13  1  0
 14 13  1  1
 14 15  1  0
 15 16  1  0
 16 17  1  0
 17 18  2  0
 17 19  2  0
 17 20  1  0
 12  3  1  0
 20 14  1  0
  9  5  2  0
M  END
>  <original ID>  (67) 
WCTWLJNAMMQTJP-ZCFIWIBFSA-N

>  <generation_date>  (67) 
None

>  <alias>  (67) 
None

>  <original SMILES>  (67) 
NNc1nc2[nH]ncc2c(=O)n1C[C@H]1CCS(=O)(=O)C1

>  <HIPPO ID>  (67) 
32283

>  <tags>  (67) 
[]

>  <ref_pdb>  (67) 
c0300a

>  <method>  (67) 
None

>  <ref_url>  (67) 
None

>  <inchikey>  (67) 
WCTWLJNAMMQTJP-ZCFIWIBFSA-N

>  <submitter_email>  (67) 
None

>  <ref_mols>  (67) 
c0314a,c1182a

>  <submitter_name>  (67) 
None

$$$$
WCTWLJNAMMQTJP-ZCFIWIBFSA-N
     RDKit          3D

 20 22  0  0  0  0  0  0  0  0999 V2000
    9.1271    8.2604   17.4306 N   0  0  0  0  0  0  0  0  0  0  0  0
    8.4689    8.3672   16.1552 N   0  0  0  0  0  0  0  0  0  0  0  0
    8.8624    7.3740   15.2991 C   0  0  0  0  0  0  0  0  0  0  0  0
   10.0319    7.5709   14.7206 N   0  0  0  0  0  0  0  0  0  0  0  0
   10.4459    6.5309   13.9839 C   0  0  0  0  0  0  0  0  0  0  0  0
   11.6089    6.4553   13.2798 N   0  0  0  0  0  0  0  0  0  0  0  0
   11.7814    5.2626   12.6876 N   0  0  0  0  0  0  0  0  0  0  0  0
   10.6637    4.5998   12.9937 C   0  0  0  0  0  0  0  0  0  0  0  0
    9.8223    5.3324   13.8213 C   0  0  0  0  0  0  0  0  0  0  0  0
    8.5663    5.0953   14.4497 C   0  0  0  0  0  0  0  0  0  0  0  0
    8.0088    4.0026   14.3645 O   0  0  0  0  0  0  0  0  0  0  0  0
    8.0695    6.2113   15.1572 N   0  0  0  0  0  0  0  0  0  0  0  0
    6.6134    6.1148   15.3755 C   0  0  0  0  0  0  0  0  0  0  0  0
    5.8006    6.8501   16.4296 C   0  0  1  0  0  0  0  0  0  0  0  0
    6.3421    6.6551   17.8287 C   0  0  0  0  0  0  0  0  0  0  0  0
    5.5788    7.5686   18.7537 C   0  0  0  0  0  0  0  0  0  0  0  0
    5.4369    9.0533   17.8245 S   0  0  0  0  0  6  0  0  0  0  0  0
    4.1437    9.6459   18.0603 O   0  0  0  0  0  0  0  0  0  0  0  0
    6.6347    9.8192   18.0572 O   0  0  0  0  0  0  0  0  0  0  0  0
    5.5119    8.3231   16.2027 C   0  0  0  0  0  0  0  0  0  0  0  0
  1  2  1  0
  2  3  1  0
  3  4  2  0
  4  5  1  0
  5  6  1  0
  6  7  1  0
  7  8  2  0
  8  9  1  0
  9 10  1  0
 10 11  2  0
 10 12  1  0
 12 13  1  0
 14 13  1  6
 14 15  1  0
 15 16  1  0
 16 17  1  0
 17 18  2  0
 17 19  2  0
 17 20  1  0
 12  3  1  0
 20 14  1  0
  9  5  2  0
M  END
>  <original ID>  (68) 
WCTWLJNAMMQTJP-ZCFIWIBFSA-N

>  <generation_date>  (68) 
None

>  <alias>  (68) 
None

>  <original SMILES>  (68) 
NNc1nc2[nH]ncc2c(=O)n1C[C@H]1CCS(=O)(=O)C1

>  <HIPPO ID>  (68) 
32284

>  <tags>  (68) 
[]

>  <ref_pdb>  (68) 
c0300a

>  <method>  (68) 
None

>  <ref_url>  (68) 
None

>  <inchikey>  (68) 
WCTWLJNAMMQTJP-ZCFIWIBFSA-N

>  <submitter_email>  (68) 
None

>  <ref_mols>  (68) 
c0314a,c1182a

>  <submitter_name>  (68) 
None

$$$$
STDIZPCIKNQCBS-MRVPVSSYSA-N
     RDKit          3D

 20 22  0  0  0  0  0  0  0  0999 V2000
    8.1156    8.3947   15.8977 O   0  0  0  0  0  0  0  0  0  0  0  0
    8.5421    7.3725   15.3833 C   0  0  0  0  0  0  0  0  0  0  0  0
    9.8545    7.4015   15.0496 N   0  0  0  0  0  0  0  0  0  0  0  0
   10.4431    6.4606   14.2358 C   0  0  0  0  0  0  0  0  0  0  0  0
   11.7021    6.6834   13.7029 C   0  0  0  0  0  0  0  0  0  0  0  0
   12.1894    5.7891   12.7703 C   0  0  0  0  0  0  0  0  0  0  0  0
   11.4168    4.6841   12.4750 C   0  0  0  0  0  0  0  0  0  0  0  0
   10.2399    4.3745   13.0719 N   0  0  0  0  0  0  0  0  0  0  0  0
    9.7587    5.3066   13.9122 C   0  0  0  0  0  0  0  0  0  0  0  0
    8.4243    5.0970   14.5200 C   0  0  0  0  0  0  0  0  0  0  0  0
    7.8998    3.9842   14.4618 O   0  0  0  0  0  0  0  0  0  0  0  0
    7.8418    6.2085   15.1507 N   0  0  0  0  0  0  0  0  0  0  0  0
    6.3933    6.1224   15.3558 C   0  0  0  0  0  0  0  0  0  0  0  0
    5.7021    6.8574   16.4944 C   0  0  1  0  0  0  0  0  0  0  0  0
    6.4501    6.7540   17.8129 C   0  0  0  0  0  0  0  0  0  0  0  0
    5.7238    7.6295   18.8048 C   0  0  0  0  0  0  0  0  0  0  0  0
    5.3613    9.0731   17.8704 S   0  0  0  0  0  6  0  0  0  0  0  0
    4.0646    9.5725   18.2549 O   0  0  0  0  0  0  0  0  0  0  0  0
    6.5128    9.9295   17.9535 O   0  0  0  0  0  0  0  0  0  0  0  0
    5.3127    8.3090   16.2633 C   0  0  0  0  0  0  0  0  0  0  0  0
  1  2  2  0
  2  3  1  0
  3  4  1  0
  4  5  2  0
  5  6  1  0
  6  7  2  0
  7  8  1  0
  8  9  2  0
  9 10  1  0
 10 11  2  0
 10 12  1  0
 12 13  1  0
 14 13  1  6
 14 15  1  0
 15 16  1  0
 16 17  1  0
 17 18  2  0
 17 19  2  0
 17 20  1  0
 12  2  1  0
 20 14  1  0
  9  4  1  0
M  END
>  <original ID>  (69) 
STDIZPCIKNQCBS-MRVPVSSYSA-N

>  <generation_date>  (69) 
None

>  <alias>  (69) 
None

>  <original SMILES>  (69) 
O=c1[nH]c2cccnc2c(=O)n1C[C@H]1CCS(=O)(=O)C1

>  <HIPPO ID>  (69) 
32354

>  <tags>  (69) 
[]

>  <ref_pdb>  (69) 
c0300a

>  <method>  (69) 
None

>  <ref_url>  (69) 
None

>  <inchikey>  (69) 
STDIZPCIKNQCBS-MRVPVSSYSA-N

>  <submitter_email>  (69) 
None

>  <ref_mols>  (69) 
c0314a,c1182a

>  <submitter_name>  (69) 
None

$$$$
STDIZPCIKNQCBS-MRVPVSSYSA-N
     RDKit          3D

 20 22  0  0  0  0  0  0  0  0999 V2000
    8.9067    8.9858   15.4725 O   0  0  0  0  0  0  0  0  0  0  0  0
    9.1827    7.8185   15.2540 C   0  0  0  0  0  0  0  0  0  0  0  0
   10.2115    7.5801   14.4217 N   0  0  0  0  0  0  0  0  0  0  0  0
   10.4605    6.3578   13.8778 C   0  0  0  0  0  0  0  0  0  0  0  0
   11.4764    6.2464   12.9446 C   0  0  0  0  0  0  0  0  0  0  0  0
   11.6457    5.0321   12.3622 C   0  0  0  0  0  0  0  0  0  0  0  0
   10.8042    4.0367   12.8110 C   0  0  0  0  0  0  0  0  0  0  0  0
    9.8371    4.0694   13.7354 N   0  0  0  0  0  0  0  0  0  0  0  0
    9.6767    5.2766   14.2409 C   0  0  0  0  0  0  0  0  0  0  0  0
    8.6651    5.4358   15.2860 C   0  0  0  0  0  0  0  0  0  0  0  0
    8.0369    4.4582   15.6874 O   0  0  0  0  0  0  0  0  0  0  0  0
    8.5334    6.7263   15.7743 N   0  0  0  0  0  0  0  0  0  0  0  0
    7.5400    6.9644   16.7745 C   0  0  0  0  0  0  0  0  0  0  0  0
    6.2072    7.3795   16.1522 C   0  0  1  0  0  0  0  0  0  0  0  0
    5.0946    6.7666   16.9566 C   0  0  0  0  0  0  0  0  0  0  0  0
    5.1127    7.4274   18.3326 C   0  0  0  0  0  0  0  0  0  0  0  0
    5.4691    9.1119   17.9827 S   0  0  0  0  0  6  0  0  0  0  0  0
    6.6499    9.5131   18.7065 O   0  0  0  0  0  0  0  0  0  0  0  0
    4.2457    9.8741   18.0415 O   0  0  0  0  0  0  0  0  0  0  0  0
    5.9188    8.8537   16.2949 C   0  0  0  0  0  0  0  0  0  0  0  0
  1  2  2  0
  2  3  1  0
  3  4  1  0
  4  5  2  0
  5  6  1  0
  6  7  2  0
  7  8  1  0
  8  9  2  0
  9 10  1  0
 10 11  2  0
 10 12  1  0
 12 13  1  0
 14 13  1  1
 14 15  1  0
 15 16  1  0
 16 17  1  0
 17 18  2  0
 17 19  2  0
 17 20  1  0
 12  2  1  0
 20 14  1  0
  9  4  1  0
M  END
>  <original ID>  (70) 
STDIZPCIKNQCBS-MRVPVSSYSA-N

>  <generation_date>  (70) 
None

>  <alias>  (70) 
None

>  <original SMILES>  (70) 
O=c1[nH]c2cccnc2c(=O)n1C[C@H]1CCS(=O)(=O)C1

>  <HIPPO ID>  (70) 
32355

>  <tags>  (70) 
[]

>  <ref_pdb>  (70) 
c0300a

>  <method>  (70) 
None

>  <ref_url>  (70) 
None

>  <inchikey>  (70) 
STDIZPCIKNQCBS-MRVPVSSYSA-N

>  <submitter_email>  (70) 
None

>  <ref_mols>  (70) 
c0314a,c1182a

>  <submitter_name>  (70) 
None

$$$$
BIESLDVJIBELAP-MRVPVSSYSA-N
     RDKit          3D

 20 22  0  0  0  0  0  0  0  0999 V2000
    7.5280    4.2374   14.8639 O   0  0  0  0  0  0  0  0  0  0  0  0
    8.2330    5.2346   14.7242 C   0  0  0  0  0  0  0  0  0  0  0  0
    9.3370    5.3078   13.8295 C   0  0  0  0  0  0  0  0  0  0  0  0
    9.8945    4.0164   12.9546 S   0  0  0  0  0  0  0  0  0  0  0  0
   11.2138    4.9105   12.3206 C   0  0  0  0  0  0  0  0  0  0  0  0
   11.2530    6.1800   12.8408 C   0  0  0  0  0  0  0  0  0  0  0  0
   10.1600    6.3787   13.7010 C   0  0  0  0  0  0  0  0  0  0  0  0
   10.0092    7.5023   14.4777 N   0  0  0  0  0  0  0  0  0  0  0  0
    9.0752    7.3965   15.3753 C   0  0  0  0  0  0  0  0  0  0  0  0
    9.1061    8.4840   16.3846 C   0  0  0  0  0  0  0  0  0  0  0  0
   10.3100    7.9946   17.6039 Cl  0  0  0  0  0  0  0  0  0  0  0  0
    8.1496    6.3652   15.5306 N   0  0  0  0  0  0  0  0  0  0  0  0
    7.3792    6.2183   16.7473 C   0  0  0  0  0  0  0  0  0  0  0  0
    5.9436    6.7313   16.8294 C   0  0  1  0  0  0  0  0  0  0  0  0
    5.6157    6.8645   18.3308 C   0  0  0  0  0  0  0  0  0  0  0  0
    6.0653    8.1852   18.8580 C   0  0  0  0  0  0  0  0  0  0  0  0
    5.4759    9.2351   17.5964 S   0  0  0  0  0  6  0  0  0  0  0  0
    4.1152    9.5814   17.9089 O   0  0  0  0  0  0  0  0  0  0  0  0
    6.4740   10.2486   17.4585 O   0  0  0  0  0  0  0  0  0  0  0  0
    5.5817    8.0829   16.2284 C   0  0  0  0  0  0  0  0  0  0  0  0
  1  2  2  0
  2  3  1  0
  3  4  1  0
  4  5  1  0
  5  6  2  0
  6  7  1  0
  7  8  1  0
  8  9  2  0
  9 10  1  0
 10 11  1  0
  9 12  1  0
 12 13  1  0
 14 13  1  1
 14 15  1  0
 15 16  1  0
 16 17  1  0
 17 18  2  0
 17 19  2  0
 17 20  1  0
 12  2  1  0
 20 14  1  0
  7  3  2  0
M  END
>  <original ID>  (71) 
BIESLDVJIBELAP-MRVPVSSYSA-N

>  <generation_date>  (71) 
None

>  <alias>  (71) 
None

>  <original SMILES>  (71) 
O=c1c2sccc2nc(CCl)n1C[C@H]1CCS(=O)(=O)C1

>  <HIPPO ID>  (71) 
32401

>  <tags>  (71) 
[]

>  <ref_pdb>  (71) 
c0300a

>  <method>  (71) 
None

>  <ref_url>  (71) 
None

>  <inchikey>  (71) 
BIESLDVJIBELAP-MRVPVSSYSA-N

>  <submitter_email>  (71) 
None

>  <ref_mols>  (71) 
c0314a,c1182a

>  <submitter_name>  (71) 
None

$$$$
BIESLDVJIBELAP-MRVPVSSYSA-N
     RDKit          3D

 20 22  0  0  0  0  0  0  0  0999 V2000
    7.5972    3.8594   14.8417 O   0  0  0  0  0  0  0  0  0  0  0  0
    8.3139    4.8525   14.9190 C   0  0  0  0  0  0  0  0  0  0  0  0
    9.5678    4.9593   14.2640 C   0  0  0  0  0  0  0  0  0  0  0  0
    9.9866    4.0817   12.9244 S   0  0  0  0  0  0  0  0  0  0  0  0
   11.4436    4.9548   12.7034 C   0  0  0  0  0  0  0  0  0  0  0  0
   11.5998    5.9182   13.6758 C   0  0  0  0  0  0  0  0  0  0  0  0
   10.4962    5.8970   14.5544 C   0  0  0  0  0  0  0  0  0  0  0  0
   10.2582    6.8412   15.5278 N   0  0  0  0  0  0  0  0  0  0  0  0
    8.9878    6.9602   15.8113 C   0  0  0  0  0  0  0  0  0  0  0  0
    8.6472    8.3442   16.2158 C   0  0  0  0  0  0  0  0  0  0  0  0
    8.2518    9.0171   14.6561 Cl  0  0  0  0  0  0  0  0  0  0  0  0
    7.9715    6.0235   15.5991 N   0  0  0  0  0  0  0  0  0  0  0  0
    6.5214    6.3032   15.5200 C   0  0  0  0  0  0  0  0  0  0  0  0
    5.7053    6.8818   16.6709 C   0  0  1  0  0  0  0  0  0  0  0  0
    6.3186    6.7461   18.0505 C   0  0  0  0  0  0  0  0  0  0  0  0
    5.5360    7.6193   19.0034 C   0  0  0  0  0  0  0  0  0  0  0  0
    5.2757    9.0819   18.0687 S   0  0  0  0  0  6  0  0  0  0  0  0
    4.0126    9.6702   18.4254 O   0  0  0  0  0  0  0  0  0  0  0  0
    6.4921    9.8517   18.1260 O   0  0  0  0  0  0  0  0  0  0  0  0
    5.2040    8.3114   16.4710 C   0  0  0  0  0  0  0  0  0  0  0  0
  1  2  2  0
  2  3  1  0
  3  4  1  0
  4  5  1  0
  5  6  2  0
  6  7  1  0
  7  8  1  0
  8  9  2  0
  9 10  1  0
 10 11  1  0
  9 12  1  0
 12 13  1  0
 14 13  1  6
 14 15  1  0
 15 16  1  0
 16 17  1  0
 17 18  2  0
 17 19  2  0
 17 20  1  0
 12  2  1  0
 20 14  1  0
  7  3  2  0
M  END
>  <original ID>  (72) 
BIESLDVJIBELAP-MRVPVSSYSA-N

>  <generation_date>  (72) 
None

>  <alias>  (72) 
None

>  <original SMILES>  (72) 
O=c1c2sccc2nc(CCl)n1C[C@H]1CCS(=O)(=O)C1

>  <HIPPO ID>  (72) 
32402

>  <tags>  (72) 
[]

>  <ref_pdb>  (72) 
c0300a

>  <method>  (72) 
None

>  <ref_url>  (72) 
None

>  <inchikey>  (72) 
BIESLDVJIBELAP-MRVPVSSYSA-N

>  <submitter_email>  (72) 
None

>  <ref_mols>  (72) 
c0314a,c1182a

>  <submitter_name>  (72) 
None

$$$$
MLYDNBGFDBWRAF-ZJUUUORDSA-N
     RDKit          3D

 21 22  0  0  0  0  0  0  0  0999 V2000
    8.4676    8.3276   18.2446 C   0  0  0  0  0  0  0  0  0  0  0  0
    9.3656    7.8240   17.1222 C   0  0  0  0  0  0  0  0  0  0  0  0
    9.2577    6.3852   16.4536 C   0  0  1  0  0  0  0  0  0  0  0  0
    8.2516    5.4112   17.0148 C   0  0  0  0  0  0  0  0  0  0  0  0
    9.4509    6.3622   14.9839 N   0  0  0  0  0  0  0  0  0  0  0  0
    8.6786    5.5152   14.1561 C   0  0  0  0  0  0  0  0  0  0  0  0
    7.4982    4.8760   14.5370 N   0  0  0  0  0  0  0  0  0  0  0  0
    6.1642    5.4767   14.5663 C   0  0  0  0  0  0  0  0  0  0  0  0
    5.7785    6.3480   15.7516 C   0  0  2  0  0  0  0  0  0  0  0  0
    4.3882    6.8371   15.5255 C   0  0  0  0  0  0  0  0  0  0  0  0
    4.0371    7.8692   16.5537 C   0  0  0  0  0  0  0  0  0  0  0  0
    5.4654    8.4586   17.2880 S   0  0  0  0  0  6  0  0  0  0  0  0
    5.5008    9.9016   17.2120 O   0  0  0  0  0  0  0  0  0  0  0  0
    5.5412    7.7913   18.5684 O   0  0  0  0  0  0  0  0  0  0  0  0
    6.4383    7.6893   16.0045 C   0  0  0  0  0  0  0  0  0  0  0  0
    9.1636    5.1854   12.9482 C   0  0  0  0  0  0  0  0  0  0  0  0
   10.3477    5.8263   12.4122 C   0  0  0  0  0  0  0  0  0  0  0  0
   10.8191    5.5404   11.3293 O   0  0  0  0  0  0  0  0  0  0  0  0
   10.9272    6.7464   13.1906 N   0  0  0  0  0  0  0  0  0  0  0  0
   10.6593    6.8979   14.5002 C   0  0  0  0  0  0  0  0  0  0  0  0
   11.8910    7.6773   15.3171 S   0  0  0  0  0  0  0  0  0  0  0  0
  1  2  1  0
  2  3  1  0
  3  4  1  6
  3  5  1  0
  5  6  1  0
  6  7  1  0
  7  8  1  0
  9  8  1  6
  9 10  1  0
 10 11  1  0
 11 12  1  0
 12 13  2  0
 12 14  2  0
 12 15  1  0
  6 16  2  0
 16 17  1  0
 17 18  2  0
 17 19  1  0
 19 20  1  0
 20 21  2  0
 20  5  1  0
 15  9  1  0
M  END
>  <original ID>  (73) 
MLYDNBGFDBWRAF-ZJUUUORDSA-N

>  <generation_date>  (73) 
None

>  <alias>  (73) 
None

>  <original SMILES>  (73) 
CC[C@@H](C)n1c(NC[C@@H]2CCS(=O)(=O)C2)cc(=O)[nH]c1=S

>  <HIPPO ID>  (73) 
32533

>  <tags>  (73) 
[]

>  <ref_pdb>  (73) 
c0300a

>  <method>  (73) 
None

>  <ref_url>  (73) 
None

>  <inchikey>  (73) 
MLYDNBGFDBWRAF-ZJUUUORDSA-N

>  <submitter_email>  (73) 
None

>  <ref_mols>  (73) 
c0314a,c1182a

>  <submitter_name>  (73) 
None

$$$$
UDWVVIMHCARDBV-MRVPVSSYSA-N
     RDKit          3D

 21 22  0  0  0  0  0  0  0  0999 V2000
    7.3343    4.6336   13.9057 C   0  0  0  0  0  0  0  0  0  0  0  0
    8.3774    5.6290   14.3231 C   0  0  0  0  0  0  0  0  0  0  0  0
    9.4495    5.9224   13.5639 C   0  0  0  0  0  0  0  0  0  0  0  0
    9.8721    5.3129   12.2682 C   0  0  0  0  0  0  0  0  0  0  0  0
   10.8956    4.3054   12.6566 C   0  0  0  0  0  0  0  0  0  0  0  0
   10.7374    3.5154   13.5762 O   0  0  0  0  0  0  0  0  0  0  0  0
   11.9421    4.2652   11.8191 O   0  0  0  0  0  0  0  0  0  0  0  0
   10.4359    6.8900   14.0764 C   0  0  0  0  0  0  0  0  0  0  0  0
   11.5496    7.0037   13.5832 O   0  0  0  0  0  0  0  0  0  0  0  0
   10.0501    7.6274   15.1359 N   0  0  0  0  0  0  0  0  0  0  0  0
    9.0685    7.2517   15.9831 C   0  0  0  0  0  0  0  0  0  0  0  0
    9.0373    7.7618   17.0962 O   0  0  0  0  0  0  0  0  0  0  0  0
    8.2024    6.2637   15.5452 N   0  0  0  0  0  0  0  0  0  0  0  0
    7.2185    5.7710   16.4942 C   0  0  0  0  0  0  0  0  0  0  0  0
    6.1055    6.7087   16.9323 C   0  0  1  0  0  0  0  0  0  0  0  0
    6.2363    7.0576   18.4198 C   0  0  0  0  0  0  0  0  0  0  0  0
    5.1548    8.0458   18.7298 C   0  0  0  0  0  0  0  0  0  0  0  0
    5.3362    9.1659   17.3938 S   0  0  0  0  0  6  0  0  0  0  0  0
    6.4066   10.0513   17.7646 O   0  0  0  0  0  0  0  0  0  0  0  0
    4.0399    9.6795   17.0553 O   0  0  0  0  0  0  0  0  0  0  0  0
    5.8990    8.0075   16.1679 C   0  0  0  0  0  0  0  0  0  0  0  0
  1  2  1  0
  2  3  2  0
  3  4  1  0
  4  5  1  0
  5  6  2  0
  5  7  1  0
  3  8  1  0
  8  9  2  0
  8 10  1  0
 10 11  1  0
 11 12  2  0
 11 13  1  0
 13 14  1  0
 15 14  1  6
 15 16  1  0
 16 17  1  0
 17 18  1  0
 18 19  2  0
 18 20  2  0
 18 21  1  0
 13  2  1  0
 21 15  1  0
M  END
>  <original ID>  (74) 
UDWVVIMHCARDBV-MRVPVSSYSA-N

>  <generation_date>  (74) 
None

>  <alias>  (74) 
None

>  <original SMILES>  (74) 
Cc1c(CC(=O)O)c(=O)[nH]c(=O)n1C[C@H]1CCS(=O)(=O)C1

>  <HIPPO ID>  (74) 
32552

>  <tags>  (74) 
[]

>  <ref_pdb>  (74) 
c0300a

>  <method>  (74) 
None

>  <ref_url>  (74) 
None

>  <inchikey>  (74) 
UDWVVIMHCARDBV-MRVPVSSYSA-N

>  <submitter_email>  (74) 
None

>  <ref_mols>  (74) 
c0314a,c1182a

>  <submitter_name>  (74) 
None

$$$$
XBLWPGRTYXMWBA-MRVPVSSYSA-N
     RDKit          3D

 21 22  0  0  0  0  0  0  0  0999 V2000
   11.1302    6.7064   13.3052 C   0  0  0  0  0  0  0  0  0  0  0  0
    9.8721    6.7756   14.1173 C   0  0  0  0  0  0  0  0  0  0  0  0
    9.3712    7.9876   14.4199 N   0  0  0  0  0  0  0  0  0  0  0  0
    8.2723    8.2061   15.1634 C   0  0  0  0  0  0  0  0  0  0  0  0
    7.9604    9.3611   15.3863 O   0  0  0  0  0  0  0  0  0  0  0  0
    7.6493    7.1216   15.6948 N   0  0  0  0  0  0  0  0  0  0  0  0
    7.3851    7.2091   17.0758 C   0  0  0  0  0  0  0  0  0  0  0  0
    5.9532    6.9951   17.4845 C   0  0  1  0  0  0  0  0  0  0  0  0
    5.9989    7.0723   19.0337 C   0  0  0  0  0  0  0  0  0  0  0  0
    4.9668    8.0225   19.5356 C   0  0  0  0  0  0  0  0  0  0  0  0
    5.0838    9.2523   18.2971 S   0  0  0  0  0  6  0  0  0  0  0  0
    3.8990   10.0448   18.3778 O   0  0  0  0  0  0  0  0  0  0  0  0
    6.3901    9.8557   18.3515 O   0  0  0  0  0  0  0  0  0  0  0  0
    5.0582    8.1085   16.9505 C   0  0  0  0  0  0  0  0  0  0  0  0
    7.8975    5.8577   15.2714 C   0  0  0  0  0  0  0  0  0  0  0  0
    7.2748    4.8529   15.6063 O   0  0  0  0  0  0  0  0  0  0  0  0
    9.1716    5.7373   14.5664 C   0  0  0  0  0  0  0  0  0  0  0  0
    9.5472    4.3649   14.4260 C   0  0  0  0  0  0  0  0  0  0  0  0
    8.9941    4.0173   13.1218 C   0  0  0  0  0  0  0  0  0  0  0  0
    7.9850    4.3560   12.5485 O   0  0  0  0  0  0  0  0  0  0  0  0
    9.8663    3.1366   12.6869 O   0  0  0  0  0  0  0  0  0  0  0  0
  1  2  1  0
  2  3  1  0
  3  4  1  0
  4  5  2  0
  4  6  1  0
  6  7  1  0
  8  7  1  6
  8  9  1  0
  9 10  1  0
 10 11  1  0
 11 12  2  0
 11 13  2  0
 11 14  1  0
  6 15  1  0
 15 16  2  0
 15 17  1  0
 17 18  1  0
 18 19  1  0
 19 20  2  0
 19 21  1  0
 17  2  2  0
 14  8  1  0
M  END
>  <original ID>  (75) 
XBLWPGRTYXMWBA-MRVPVSSYSA-N

>  <generation_date>  (75) 
None

>  <alias>  (75) 
None

>  <original SMILES>  (75) 
Cc1[nH]c(=O)n(C[C@H]2CCS(=O)(=O)C2)c(=O)c1CC(=O)O

>  <HIPPO ID>  (75) 
32553

>  <tags>  (75) 
[]

>  <ref_pdb>  (75) 
c0300a

>  <method>  (75) 
None

>  <ref_url>  (75) 
None

>  <inchikey>  (75) 
XBLWPGRTYXMWBA-MRVPVSSYSA-N

>  <submitter_email>  (75) 
None

>  <ref_mols>  (75) 
c0314a,c1182a

>  <submitter_name>  (75) 
None

$$$$
SHZLHXGONWQKGR-UHFFFAOYSA-N
     RDKit          3D

 17 18  0  0  0  0  0  0  0  0999 V2000
   13.9005    8.9561    9.1044 C   0  0  0  0  0  0  0  0  0  0  0  0
   14.6567    8.3492   10.2648 C   0  0  0  0  0  0  0  0  0  0  0  0
   14.4904    6.8893   10.4561 C   0  0  0  0  0  0  0  0  0  0  0  0
   15.2985    6.0784   11.1031 N   0  0  0  0  0  0  0  0  0  0  0  0
   14.8090    4.8421   10.7573 C   0  0  0  0  0  0  0  0  0  0  0  0
   15.5585    3.5793   11.0245 C   0  0  0  0  0  0  0  0  0  0  0  0
   16.1431    3.5551   12.3743 N   0  0  0  0  0  0  0  0  0  0  0  0
   15.5582    2.7554   13.3300 C   0  0  0  0  0  0  0  0  0  0  0  0
   16.0658    2.6168   14.5532 C   0  0  0  0  0  0  0  0  0  0  0  0
   17.1945    3.4077   14.9490 C   0  0  0  0  0  0  0  0  0  0  0  0
   17.6717    3.2764   16.7541 Br  0  0  0  0  0  0  0  0  0  0  0  0
   17.7855    4.2357   14.0693 C   0  0  0  0  0  0  0  0  0  0  0  0
   18.8240    5.2327   14.4545 C   0  0  0  0  0  0  0  0  0  0  0  0
   17.3471    4.2033   12.6265 C   0  0  0  0  0  0  0  0  0  0  0  0
   18.0397    4.7336   11.7551 O   0  0  0  0  0  0  0  0  0  0  0  0
   13.6946    4.8723   10.0094 N   0  0  0  0  0  0  0  0  0  0  0  0
   13.4701    6.2417    9.8231 O   0  0  0  0  0  0  0  0  0  0  0  0
  1  2  1  0
  2  3  1  0
  3  4  2  0
  4  5  1  0
  5  6  1  0
  6  7  1  0
  7  8  1  0
  8  9  2  0
  9 10  1  0
 10 11  1  0
 10 12  2  0
 12 13  1  0
 12 14  1  0
 14 15  2  0
  5 16  2  0
 16 17  1  0
 17  3  1  0
 14  7  1  0
M  END
>  <original ID>  (76) 
SHZLHXGONWQKGR-UHFFFAOYSA-N

>  <generation_date>  (76) 
None

>  <alias>  (76) 
None

>  <original SMILES>  (76) 
CCc1nc(Cn2ccc(Br)c(C)c2=O)no1

>  <HIPPO ID>  (76) 
35363

>  <tags>  (76) 
[]

>  <ref_pdb>  (76) 
c0300a

>  <method>  (76) 
None

>  <ref_url>  (76) 
None

>  <inchikey>  (76) 
SHZLHXGONWQKGR-UHFFFAOYSA-N

>  <submitter_email>  (76) 
None

>  <ref_mols>  (76) 
c0316a,c1091a

>  <submitter_name>  (76) 
None

$$$$
QLSJXJQHBAUBHY-CYBMUJFWSA-N
     RDKit          3D

 24 27  0  0  0  0  0  0  0  0999 V2000
   18.0029    4.6268   11.6349 O   0  0  0  0  0  0  0  0  0  0  0  0
   17.3630    4.1227   12.5592 C   0  0  0  0  0  0  0  0  0  0  0  0
   17.9607    4.1536   13.9193 C   0  0  0  0  0  0  0  0  0  0  0  0
   17.3711    3.5148   14.9355 C   0  0  0  0  0  0  0  0  0  0  0  0
   18.1112    3.4691   16.6415 Br  0  0  0  0  0  0  0  0  0  0  0  0
   16.1249    2.8325   14.7322 C   0  0  0  0  0  0  0  0  0  0  0  0
   15.5431    2.8678   13.5314 C   0  0  0  0  0  0  0  0  0  0  0  0
   16.1141    3.5172   12.4526 N   0  0  0  0  0  0  0  0  0  0  0  0
   15.4332    3.4666   11.1451 C   0  0  0  0  0  0  0  0  0  0  0  0
   14.7809    4.7632   10.8020 C   0  0  0  0  0  0  0  0  0  0  0  0
   13.6752    4.8706   10.0462 N   0  0  0  0  0  0  0  0  0  0  0  0
   13.5666    6.2552    9.8251 O   0  0  0  0  0  0  0  0  0  0  0  0
   14.6351    6.8214   10.4521 C   0  0  0  0  0  0  0  0  0  0  0  0
   14.9077    8.2724   10.3468 C   0  0  1  0  0  0  0  0  0  0  0  0
   14.1342    9.0628    9.3142 C   0  0  0  0  0  0  0  0  0  0  0  0
   14.4330   10.4735    9.3992 O   0  0  0  0  0  0  0  0  0  0  0  0
   14.4753   10.9238   10.6926 C   0  0  0  0  0  0  0  0  0  0  0  0
   14.1495   12.2513   10.9256 C   0  0  0  0  0  0  0  0  0  0  0  0
   14.0485   12.7494   12.2202 C   0  0  0  0  0  0  0  0  0  0  0  0
   14.2301   11.9156   13.3124 C   0  0  0  0  0  0  0  0  0  0  0  0
   14.5428   10.5811   13.0981 C   0  0  0  0  0  0  0  0  0  0  0  0
   14.6563   10.0913   11.7924 C   0  0  0  0  0  0  0  0  0  0  0  0
   14.7286    8.7352   11.6868 O   0  0  0  0  0  0  0  0  0  0  0  0
   15.3734    5.9548   11.1085 N   0  0  0  0  0  0  0  0  0  0  0  0
  1  2  2  0
  2  3  1  0
  3  4  2  0
  4  5  1  0
  4  6  1  0
  6  7  2  0
  7  8  1  0
  8  9  1  0
  9 10  1  0
 10 11  2  0
 11 12  1  0
 12 13  1  0
 14 13  1  1
 14 15  1  0
 15 16  1  0
 16 17  1  0
 17 18  2  0
 18 19  1  0
 19 20  2  0
 20 21  1  0
 21 22  2  0
 22 23  1  0
 13 24  2  0
  8  2  1  0
 24 10  1  0
 23 14  1  0
 22 17  1  0
M  END
>  <original ID>  (77) 
QLSJXJQHBAUBHY-CYBMUJFWSA-N

>  <generation_date>  (77) 
None

>  <alias>  (77) 
None

>  <original SMILES>  (77) 
O=c1cc(Br)ccn1Cc1noc([C@H]2COc3ccccc3O2)n1

>  <HIPPO ID>  (77) 
36167

>  <tags>  (77) 
[]

>  <ref_pdb>  (77) 
c0300a

>  <method>  (77) 
None

>  <ref_url>  (77) 
None

>  <inchikey>  (77) 
QLSJXJQHBAUBHY-CYBMUJFWSA-N

>  <submitter_email>  (77) 
None

>  <ref_mols>  (77) 
c0316a,c1091a

>  <submitter_name>  (77) 
None

$$$$
GABLAATWAOWAJC-AWEZNQCLSA-N
     RDKit          3D

 25 28  0  0  0  0  0  0  0  0999 V2000
   19.6048    6.3787   15.4831 C   0  0  0  0  0  0  0  0  0  0  0  0
   18.6522    5.2267   15.5768 C   0  0  0  0  0  0  0  0  0  0  0  0
   18.1490    4.7031   16.7124 C   0  0  0  0  0  0  0  0  0  0  0  0
   18.5293    5.3577   18.4232 Br  0  0  0  0  0  0  0  0  0  0  0  0
   17.2485    3.5740   16.6872 C   0  0  0  0  0  0  0  0  0  0  0  0
   16.9493    2.9851   15.5301 C   0  0  0  0  0  0  0  0  0  0  0  0
   17.4772    3.4616   14.3509 N   0  0  0  0  0  0  0  0  0  0  0  0
   17.1474    2.7919   13.1068 C   0  0  0  0  0  0  0  0  0  0  0  0
   16.1423    3.5712   12.3563 C   0  0  0  0  0  0  0  0  0  0  0  0
   16.2667    3.8632   11.0540 N   0  0  0  0  0  0  0  0  0  0  0  0
   15.2075    4.7351   10.8317 O   0  0  0  0  0  0  0  0  0  0  0  0
   14.5695    4.8742   12.0281 C   0  0  0  0  0  0  0  0  0  0  0  0
   13.4831    5.8593   12.1270 C   0  0  2  0  0  0  0  0  0  0  0  0
   12.6198    5.8968   10.8881 C   0  0  0  0  0  0  0  0  0  0  0  0
   13.2916    6.4688    9.7637 O   0  0  0  0  0  0  0  0  0  0  0  0
   13.9689    7.6073   10.1034 C   0  0  0  0  0  0  0  0  0  0  0  0
   14.2004    8.5207    9.0849 C   0  0  0  0  0  0  0  0  0  0  0  0
   14.7633    9.7584    9.3599 C   0  0  0  0  0  0  0  0  0  0  0  0
   14.9964   10.1257   10.6756 C   0  0  0  0  0  0  0  0  0  0  0  0
   14.8226    9.1943   11.6994 C   0  0  0  0  0  0  0  0  0  0  0  0
   14.3328    7.9216   11.4082 C   0  0  0  0  0  0  0  0  0  0  0  0
   14.0707    7.1182   12.4816 O   0  0  0  0  0  0  0  0  0  0  0  0
   15.0679    4.1367   12.9856 N   0  0  0  0  0  0  0  0  0  0  0  0
   18.2660    4.5974   14.2708 C   0  0  0  0  0  0  0  0  0  0  0  0
   18.6535    5.0644   13.1978 O   0  0  0  0  0  0  0  0  0  0  0  0
  1  2  1  0
  2  3  2  0
  3  4  1  0
  3  5  1  0
  5  6  2  0
  6  7  1  0
  7  8  1  0
  8  9  1  0
  9 10  2  0
 10 11  1  0
 11 12  1  0
 13 12  1  6
 13 14  1  0
 14 15  1  0
 15 16  1  0
 16 17  2  0
 17 18  1  0
 18 19  2  0
 19 20  1  0
 20 21  2  0
 21 22  1  0
 12 23  2  0
  7 24  1  0
 24 25  2  0
 24  2  1  0
 23  9  1  0
 22 13  1  0
 21 16  1  0
M  END
>  <original ID>  (78) 
GABLAATWAOWAJC-AWEZNQCLSA-N

>  <generation_date>  (78) 
None

>  <alias>  (78) 
None

>  <original SMILES>  (78) 
Cc1c(Br)ccn(Cc2noc([C@@H]3COc4ccccc4O3)n2)c1=O

>  <HIPPO ID>  (78) 
36226

>  <tags>  (78) 
[]

>  <ref_pdb>  (78) 
c0300a

>  <method>  (78) 
None

>  <ref_url>  (78) 
None

>  <inchikey>  (78) 
GABLAATWAOWAJC-AWEZNQCLSA-N

>  <submitter_email>  (78) 
None

>  <ref_mols>  (78) 
c0316a,c1091a

>  <submitter_name>  (78) 
None

$$$$
GABLAATWAOWAJC-CQSZACIVSA-N
     RDKit          3D

 25 28  0  0  0  0  0  0  0  0999 V2000
   18.8042    5.2236   14.4112 C   0  0  0  0  0  0  0  0  0  0  0  0
   17.7720    4.2138   14.0445 C   0  0  0  0  0  0  0  0  0  0  0  0
   17.1901    3.3987   14.9420 C   0  0  0  0  0  0  0  0  0  0  0  0
   17.6720    3.3046   16.7482 Br  0  0  0  0  0  0  0  0  0  0  0  0
   16.0650    2.5953   14.5655 C   0  0  0  0  0  0  0  0  0  0  0  0
   15.5520    2.7083   13.3422 C   0  0  0  0  0  0  0  0  0  0  0  0
   16.1269    3.4906   12.3662 N   0  0  0  0  0  0  0  0  0  0  0  0
   15.5279    3.4844   11.0170 C   0  0  0  0  0  0  0  0  0  0  0  0
   14.8327    4.7683   10.7181 C   0  0  0  0  0  0  0  0  0  0  0  0
   13.7451    4.8690    9.9357 N   0  0  0  0  0  0  0  0  0  0  0  0
   13.6007    6.2578    9.7618 O   0  0  0  0  0  0  0  0  0  0  0  0
   14.6384    6.8308   10.4335 C   0  0  0  0  0  0  0  0  0  0  0  0
   14.9061    8.2833   10.3405 C   0  0  1  0  0  0  0  0  0  0  0  0
   14.1324    9.0756    9.3098 C   0  0  0  0  0  0  0  0  0  0  0  0
   14.4255   10.4866    9.4014 O   0  0  0  0  0  0  0  0  0  0  0  0
   14.4723   10.9311   10.6964 C   0  0  0  0  0  0  0  0  0  0  0  0
   14.1487   12.2582   10.9337 C   0  0  0  0  0  0  0  0  0  0  0  0
   14.0521   12.7528   12.2300 C   0  0  0  0  0  0  0  0  0  0  0  0
   14.2343   11.9152   13.3193 C   0  0  0  0  0  0  0  0  0  0  0  0
   14.5436   10.5805   13.1004 C   0  0  0  0  0  0  0  0  0  0  0  0
   14.6541   10.0946   11.7931 C   0  0  0  0  0  0  0  0  0  0  0  0
   14.7222    8.7384   11.6823 O   0  0  0  0  0  0  0  0  0  0  0  0
   15.3737    5.9643   11.0927 N   0  0  0  0  0  0  0  0  0  0  0  0
   17.3283    4.1551   12.6028 C   0  0  0  0  0  0  0  0  0  0  0  0
   18.0100    4.6866   11.7231 O   0  0  0  0  0  0  0  0  0  0  0  0
  1  2  1  0
  2  3  2  0
  3  4  1  0
  3  5  1  0
  5  6  2  0
  6  7  1  0
  7  8  1  0
  8  9  1  0
  9 10  2  0
 10 11  1  0
 11 12  1  0
 13 12  1  1
 13 14  1  0
 14 15  1  0
 15 16  1  0
 16 17  2  0
 17 18  1  0
 18 19  2  0
 19 20  1  0
 20 21  2  0
 21 22  1  0
 12 23  2  0
  7 24  1  0
 24 25  2  0
 24  2  1  0
 23  9  1  0
 22 13  1  0
 21 16  1  0
M  END
>  <original ID>  (79) 
GABLAATWAOWAJC-CQSZACIVSA-N

>  <generation_date>  (79) 
None

>  <alias>  (79) 
None

>  <original SMILES>  (79) 
Cc1c(Br)ccn(Cc2noc([C@H]3COc4ccccc4O3)n2)c1=O

>  <HIPPO ID>  (79) 
36227

>  <tags>  (79) 
[]

>  <ref_pdb>  (79) 
c0300a

>  <method>  (79) 
None

>  <ref_url>  (79) 
None

>  <inchikey>  (79) 
GABLAATWAOWAJC-CQSZACIVSA-N

>  <submitter_email>  (79) 
None

>  <ref_mols>  (79) 
c0316a,c1091a

>  <submitter_name>  (79) 
None

$$$$
BLCTWNNCFDJXOL-UHFFFAOYSA-N
     RDKit          3D

 16 16  0  0  0  0  0  0  0  0999 V2000
   22.2880   11.4889   11.7266 C   0  0  0  0  0  0  0  0  0  0  0  0
   21.5155   11.5883   10.4299 C   0  0  0  0  0  0  0  0  0  0  0  0
   20.1242   11.3110   10.6664 O   0  0  0  0  0  0  0  0  0  0  0  0
   19.3734   12.3840   10.9941 C   0  0  0  0  0  0  0  0  0  0  0  0
   19.7081   13.5534   11.0026 O   0  0  0  0  0  0  0  0  0  0  0  0
   17.9741   11.9230   11.4245 C   0  0  0  0  0  0  0  0  0  0  0  0
   17.5398   12.3551   12.4852 O   0  0  0  0  0  0  0  0  0  0  0  0
   17.3630   11.0453   10.5528 N   0  0  0  0  0  0  0  0  0  0  0  0
   16.2590   10.1941   10.7848 C   0  0  0  0  0  0  0  0  0  0  0  0
   15.9411    9.3273    9.7329 C   0  0  0  0  0  0  0  0  0  0  0  0
   15.0308    8.2937    9.9105 C   0  0  0  0  0  0  0  0  0  0  0  0
   14.5181    8.0526   11.1650 C   0  0  0  0  0  0  0  0  0  0  0  0
   13.6683    7.0097   11.3829 O   0  0  0  0  0  0  0  0  0  0  0  0
   14.7796    8.9333   12.2041 C   0  0  0  0  0  0  0  0  0  0  0  0
   15.5603   10.0749   11.9960 C   0  0  0  0  0  0  0  0  0  0  0  0
   15.3341   11.1619   12.8469 N   0  0  0  0  0  0  0  0  0  0  0  0
  1  2  1  0
  2  3  1  0
  3  4  1  0
  4  5  2  0
  4  6  1  0
  6  7  2  0
  6  8  1  0
  8  9  1  0
  9 10  2  0
 10 11  1  0
 11 12  2  0
 12 13  1  0
 12 14  1  0
 14 15  2  0
 15 16  1  0
 15  9  1  0
M  END
>  <original ID>  (80) 
BLCTWNNCFDJXOL-UHFFFAOYSA-N

>  <generation_date>  (80) 
None

>  <alias>  (80) 
None

>  <original SMILES>  (80) 
CCOC(=O)C(=O)Nc1ccc(O)cc1N

>  <HIPPO ID>  (80) 
39637

>  <tags>  (80) 
[]

>  <ref_pdb>  (80) 
c0270a

>  <method>  (80) 
None

>  <ref_url>  (80) 
None

>  <inchikey>  (80) 
BLCTWNNCFDJXOL-UHFFFAOYSA-N

>  <submitter_email>  (80) 
None

>  <ref_mols>  (80) 
c0935a,c1353a

>  <submitter_name>  (80) 
None

$$$$
DENVXOMDJBFIAB-UHFFFAOYSA-N
     RDKit          3D

 16 16  0  0  0  0  0  0  0  0999 V2000
   21.5413   11.4748   10.5084 C   0  0  0  0  0  0  0  0  0  0  0  0
   20.1214   11.4534   10.4012 O   0  0  0  0  0  0  0  0  0  0  0  0
   19.5193   12.4528   11.2242 C   0  0  0  0  0  0  0  0  0  0  0  0
   19.7304   13.7422   10.6619 O   0  0  0  0  0  0  0  0  0  0  0  0
   19.8589   14.7387   11.6718 C   0  0  0  0  0  0  0  0  0  0  0  0
   17.9971   12.1370   11.4096 C   0  0  0  0  0  0  0  0  0  0  0  0
   17.2882   12.8278   12.1447 O   0  0  0  0  0  0  0  0  0  0  0  0
   17.5489   11.0662   10.6620 N   0  0  0  0  0  0  0  0  0  0  0  0
   16.3941   10.2698   10.8220 C   0  0  0  0  0  0  0  0  0  0  0  0
   16.0673    9.4480    9.7367 C   0  0  0  0  0  0  0  0  0  0  0  0
   15.0992    8.4586    9.8456 C   0  0  0  0  0  0  0  0  0  0  0  0
   14.5528    8.1925   11.0789 C   0  0  0  0  0  0  0  0  0  0  0  0
   13.6999    7.1436   11.2515 O   0  0  0  0  0  0  0  0  0  0  0  0
   14.8323    9.0233   12.1549 C   0  0  0  0  0  0  0  0  0  0  0  0
   15.6364   10.1594   11.9977 C   0  0  0  0  0  0  0  0  0  0  0  0
   15.8126   10.9822   13.1157 N   0  0  0  0  0  0  0  0  0  0  0  0
  1  2  1  0
  2  3  1  0
  3  4  1  0
  4  5  1  0
  3  6  1  0
  6  7  2  0
  6  8  1  0
  8  9  1  0
  9 10  2  0
 10 11  1  0
 11 12  2  0
 12 13  1  0
 12 14  1  0
 14 15  2  0
 15 16  1  0
 15  9  1  0
M  END
>  <original ID>  (81) 
DENVXOMDJBFIAB-UHFFFAOYSA-N

>  <generation_date>  (81) 
None

>  <alias>  (81) 
None

>  <original SMILES>  (81) 
COC(OC)C(=O)Nc1ccc(O)cc1N

>  <HIPPO ID>  (81) 
39638

>  <tags>  (81) 
[]

>  <ref_pdb>  (81) 
c0270a

>  <method>  (81) 
None

>  <ref_url>  (81) 
None

>  <inchikey>  (81) 
DENVXOMDJBFIAB-UHFFFAOYSA-N

>  <submitter_email>  (81) 
None

>  <ref_mols>  (81) 
c0935a,c1353a

>  <submitter_name>  (81) 
None

$$$$
ZYNQZXWOWZIJSJ-UHFFFAOYSA-N
     RDKit          3D

 18 19  0  0  0  0  0  0  0  0999 V2000
   21.5275   11.4335   10.4446 C   0  0  0  0  0  0  0  0  0  0  0  0
   20.1031   11.4516   10.3987 O   0  0  0  0  0  0  0  0  0  0  0  0
   19.5746   12.4727   11.2410 C   0  0  0  0  0  0  0  0  0  0  0  0
   19.7409   13.7484   10.6383 O   0  0  0  0  0  0  0  0  0  0  0  0
   19.8833   14.7737   11.6176 C   0  0  0  0  0  0  0  0  0  0  0  0
   18.0795   12.1643   11.5662 C   0  0  0  0  0  0  0  0  0  0  0  0
   17.5333   12.7255   12.5178 O   0  0  0  0  0  0  0  0  0  0  0  0
   17.4825   11.2378   10.7326 N   0  0  0  0  0  0  0  0  0  0  0  0
   16.3502   10.4224   10.9767 C   0  0  0  0  0  0  0  0  0  0  0  0
   16.0604    9.4761    9.9898 C   0  0  0  0  0  0  0  0  0  0  0  0
   15.1667    8.4790   10.2943 C   0  0  0  0  0  0  0  0  0  0  0  0
   14.6458    8.3256   11.5452 C   0  0  0  0  0  0  0  0  0  0  0  0
   14.8330    9.2871   12.5056 C   0  0  0  0  0  0  0  0  0  0  0  0
   15.6073   10.4086   12.1845 C   0  0  0  0  0  0  0  0  0  0  0  0
   15.3219   11.5842   12.8910 N   0  0  0  0  0  0  0  0  0  0  0  0
   13.8475    7.2279   11.6515 O   0  0  0  0  0  0  0  0  0  0  0  0
   13.8711    6.7481   10.2925 C   0  0  0  0  0  0  0  0  0  0  0  0
   14.6972    7.5486    9.4419 O   0  0  0  0  0  0  0  0  0  0  0  0
  1  2  1  0
  2  3  1  0
  3  4  1  0
  4  5  1  0
  3  6  1  0
  6  7  2  0
  6  8  1  0
  8  9  1  0
  9 10  2  0
 10 11  1  0
 11 12  2  0
 12 13  1  0
 13 14  2  0
 14 15  1  0
 12 16  1  0
 16 17  1  0
 17 18  1  0
 14  9  1  0
 18 11  1  0
M  END
>  <original ID>  (82) 
ZYNQZXWOWZIJSJ-UHFFFAOYSA-N

>  <generation_date>  (82) 
None

>  <alias>  (82) 
None

>  <original SMILES>  (82) 
COC(OC)C(=O)Nc1cc2c(cc1N)OCO2

>  <HIPPO ID>  (82) 
39775

>  <tags>  (82) 
[]

>  <ref_pdb>  (82) 
c0270a

>  <method>  (82) 
None

>  <ref_url>  (82) 
None

>  <inchikey>  (82) 
ZYNQZXWOWZIJSJ-UHFFFAOYSA-N

>  <submitter_email>  (82) 
None

>  <ref_mols>  (82) 
c0935a,c1353a

>  <submitter_name>  (82) 
None

$$$$
FCNLMPDMCJOPIE-UHFFFAOYSA-N
     RDKit          3D

 18 19  0  0  0  0  0  0  0  0999 V2000
   21.5493   11.3118   10.5434 C   0  0  0  0  0  0  0  0  0  0  0  0
   20.1307   11.3018   10.4494 O   0  0  0  0  0  0  0  0  0  0  0  0
   19.5377   12.3947   11.1418 C   0  0  0  0  0  0  0  0  0  0  0  0
   19.7629   13.6156   10.4471 O   0  0  0  0  0  0  0  0  0  0  0  0
   20.5885   14.5079   11.1786 C   0  0  0  0  0  0  0  0  0  0  0  0
   18.0065   12.1374   11.3370 C   0  0  0  0  0  0  0  0  0  0  0  0
   17.3304   12.8748   12.0603 O   0  0  0  0  0  0  0  0  0  0  0  0
   17.5051   11.0649   10.6219 N   0  0  0  0  0  0  0  0  0  0  0  0
   16.3617   10.2669   10.8697 C   0  0  0  0  0  0  0  0  0  0  0  0
   15.9775    9.3979    9.8259 C   0  0  0  0  0  0  0  0  0  0  0  0
   15.0564    8.3722   10.0346 C   0  0  0  0  0  0  0  0  0  0  0  0
   14.6439    8.1512   11.3217 C   0  0  0  0  0  0  0  0  0  0  0  0
   14.9777    9.0187   12.3460 C   0  0  0  0  0  0  0  0  0  0  0  0
   15.7005   10.1821   12.1092 C   0  0  0  0  0  0  0  0  0  0  0  0
   15.9323   11.0548   13.1757 N   0  0  0  0  0  0  0  0  0  0  0  0
   14.4592    8.4846   13.6272 C   0  0  0  0  0  0  0  0  0  0  0  0
   13.9208    7.1305   13.1533 C   0  0  0  0  0  0  0  0  0  0  0  0
   13.8688    7.0930   11.7102 O   0  0  0  0  0  0  0  0  0  0  0  0
  1  2  1  0
  2  3  1  0
  3  4  1  0
  4  5  1  0
  3  6  1  0
  6  7  2  0
  6  8  1  0
  8  9  1  0
  9 10  2  0
 10 11  1  0
 11 12  2  0
 12 13  1  0
 13 14  2  0
 14 15  1  0
 13 16  1  0
 16 17  1  0
 17 18  1  0
 14  9  1  0
 18 12  1  0
M  END
>  <original ID>  (83) 
FCNLMPDMCJOPIE-UHFFFAOYSA-N

>  <generation_date>  (83) 
None

>  <alias>  (83) 
None

>  <original SMILES>  (83) 
COC(OC)C(=O)Nc1ccc2c(c1N)CCO2

>  <HIPPO ID>  (83) 
39780

>  <tags>  (83) 
[]

>  <ref_pdb>  (83) 
c0270a

>  <method>  (83) 
None

>  <ref_url>  (83) 
None

>  <inchikey>  (83) 
FCNLMPDMCJOPIE-UHFFFAOYSA-N

>  <submitter_email>  (83) 
None

>  <ref_mols>  (83) 
c0935a,c1353a

>  <submitter_name>  (83) 
None

$$$$
DKEKFLKQWORQOV-UHFFFAOYSA-N
     RDKit          3D

 19 19  0  0  0  0  0  0  0  0999 V2000
   21.6240   11.5904   10.5153 C   0  0  0  0  0  0  0  0  0  0  0  0
   20.2018   11.5001   10.4876 O   0  0  0  0  0  0  0  0  0  0  0  0
   19.5981   12.5564   11.2314 C   0  0  0  0  0  0  0  0  0  0  0  0
   18.1106   12.2793   11.4629 C   0  0  0  0  0  0  0  0  0  0  0  0
   17.4273   12.9997   12.1876 O   0  0  0  0  0  0  0  0  0  0  0  0
   17.6509   11.1980   10.7532 N   0  0  0  0  0  0  0  0  0  0  0  0
   16.4953   10.4224   10.9355 C   0  0  0  0  0  0  0  0  0  0  0  0
   16.1857    9.5868    9.8740 C   0  0  0  0  0  0  0  0  0  0  0  0
   15.2209    8.6180   10.0143 C   0  0  0  0  0  0  0  0  0  0  0  0
   14.8912    7.9353    8.9322 F   0  0  0  0  0  0  0  0  0  0  0  0
   14.6420    8.3401   11.2331 C   0  0  0  0  0  0  0  0  0  0  0  0
   13.8075    7.2951   11.5033 O   0  0  0  0  0  0  0  0  0  0  0  0
   13.1761    6.6758   10.3883 C   0  0  0  0  0  0  0  0  0  0  0  0
   13.9763    5.7603    9.8194 F   0  0  0  0  0  0  0  0  0  0  0  0
   12.0772    6.0347   10.8494 F   0  0  0  0  0  0  0  0  0  0  0  0
   12.7731    7.5885    9.4907 F   0  0  0  0  0  0  0  0  0  0  0  0
   14.9079    9.2165   12.2820 C   0  0  0  0  0  0  0  0  0  0  0  0
   15.7176   10.3488   12.1008 C   0  0  0  0  0  0  0  0  0  0  0  0
   15.8800   11.2034   13.1921 N   0  0  0  0  0  0  0  0  0  0  0  0
  1  2  1  0
  2  3  1  0
  3  4  1  0
  4  5  2  0
  4  6  1  0
  6  7  1  0
  7  8  2  0
  8  9  1  0
  9 10  1  0
  9 11  2  0
 11 12  1  0
 12 13  1  0
 13 14  1  0
 13 15  1  0
 13 16  1  0
 11 17  1  0
 17 18  2  0
 18 19  1  0
 18  7  1  0
M  END
>  <original ID>  (84) 
DKEKFLKQWORQOV-UHFFFAOYSA-N

>  <generation_date>  (84) 
None

>  <alias>  (84) 
None

>  <original SMILES>  (84) 
COCC(=O)Nc1cc(F)c(OC(F)(F)F)cc1N

>  <HIPPO ID>  (84) 
39885

>  <tags>  (84) 
[]

>  <ref_pdb>  (84) 
c0270a

>  <method>  (84) 
None

>  <ref_url>  (84) 
None

>  <inchikey>  (84) 
DKEKFLKQWORQOV-UHFFFAOYSA-N

>  <submitter_email>  (84) 
None

>  <ref_mols>  (84) 
c0935a,c1353a

>  <submitter_name>  (84) 
None

$$$$
CHYIKZUYESXPJK-UHFFFAOYSA-N
     RDKit          3D

 21 21  0  0  0  0  0  0  0  0999 V2000
   22.2399   11.0511   10.2087 C   0  0  0  0  0  0  0  0  0  0  0  0
   21.3461   12.1203   10.7546 C   0  0  0  0  0  0  0  0  0  0  0  0
   20.0096   11.6083   10.7766 O   0  0  0  0  0  0  0  0  0  0  0  0
   19.1316   12.5668   11.1179 C   0  0  0  0  0  0  0  0  0  0  0  0
   19.3472   13.7621   11.1944 O   0  0  0  0  0  0  0  0  0  0  0  0
   17.7972   11.9550   11.5310 C   0  0  0  0  0  0  0  0  0  0  0  0
   17.3392   12.3373   12.6016 O   0  0  0  0  0  0  0  0  0  0  0  0
   17.2387   11.0438   10.6567 N   0  0  0  0  0  0  0  0  0  0  0  0
   16.1786   10.1323   10.8949 C   0  0  0  0  0  0  0  0  0  0  0  0
   15.7328    9.4130    9.7881 C   0  0  0  0  0  0  0  0  0  0  0  0
   14.7613    8.4306    9.9424 C   0  0  0  0  0  0  0  0  0  0  0  0
   14.1508    7.9646    8.8519 F   0  0  0  0  0  0  0  0  0  0  0  0
   14.3406    7.9937   11.1928 C   0  0  0  0  0  0  0  0  0  0  0  0
   13.3962    7.0110   11.1899 O   0  0  0  0  0  0  0  0  0  0  0  0
   12.9457    6.4329   12.4040 C   0  0  0  0  0  0  0  0  0  0  0  0
   11.9176    5.6037   12.1346 F   0  0  0  0  0  0  0  0  0  0  0  0
   13.9410    5.7358   12.9817 F   0  0  0  0  0  0  0  0  0  0  0  0
   12.4915    7.3303   13.3072 F   0  0  0  0  0  0  0  0  0  0  0  0
   14.7772    8.7102   12.2951 C   0  0  0  0  0  0  0  0  0  0  0  0
   15.5920    9.8476   12.1427 C   0  0  0  0  0  0  0  0  0  0  0  0
   15.4826   10.7801   13.1901 N   0  0  0  0  0  0  0  0  0  0  0  0
  1  2  1  0
  2  3  1  0
  3  4  1  0
  4  5  2  0
  4  6  1  0
  6  7  2  0
  6  8  1  0
  8  9  1  0
  9 10  2  0
 10 11  1  0
 11 12  1  0
 11 13  2  0
 13 14  1  0
 14 15  1  0
 15 16  1  0
 15 17  1  0
 15 18  1  0
 13 19  1  0
 19 20  2  0
 20 21  1  0
 20  9  1  0
M  END
>  <original ID>  (85) 
CHYIKZUYESXPJK-UHFFFAOYSA-N

>  <generation_date>  (85) 
None

>  <alias>  (85) 
None

>  <original SMILES>  (85) 
CCOC(=O)C(=O)Nc1cc(F)c(OC(F)(F)F)cc1N

>  <HIPPO ID>  (85) 
40535

>  <tags>  (85) 
[]

>  <ref_pdb>  (85) 
c0270a

>  <method>  (85) 
None

>  <ref_url>  (85) 
None

>  <inchikey>  (85) 
CHYIKZUYESXPJK-UHFFFAOYSA-N

>  <submitter_email>  (85) 
None

>  <ref_mols>  (85) 
c0935a,c1353a

>  <submitter_name>  (85) 
None

$$$$
LRCVCXAAQGNXSS-UHFFFAOYSA-N
     RDKit          3D

 21 21  0  0  0  0  0  0  0  0999 V2000
   21.5582   11.4966   10.4684 C   0  0  0  0  0  0  0  0  0  0  0  0
   20.1336   11.5125   10.4502 O   0  0  0  0  0  0  0  0  0  0  0  0
   19.6152   12.5344   11.3048 C   0  0  0  0  0  0  0  0  0  0  0  0
   19.7503   13.8041   10.6864 O   0  0  0  0  0  0  0  0  0  0  0  0
   19.8664   14.8427   11.6547 C   0  0  0  0  0  0  0  0  0  0  0  0
   18.1281   12.1986   11.6425 C   0  0  0  0  0  0  0  0  0  0  0  0
   17.5743   12.7057   12.6181 O   0  0  0  0  0  0  0  0  0  0  0  0
   17.5518   11.2952   10.7761 N   0  0  0  0  0  0  0  0  0  0  0  0
   16.4319   10.4603   10.9610 C   0  0  0  0  0  0  0  0  0  0  0  0
   16.1770    9.5851    9.9169 C   0  0  0  0  0  0  0  0  0  0  0  0
   15.2480    8.5781   10.0660 C   0  0  0  0  0  0  0  0  0  0  0  0
   14.9657    7.8620    8.9934 F   0  0  0  0  0  0  0  0  0  0  0  0
   14.6376    8.3109   11.2721 C   0  0  0  0  0  0  0  0  0  0  0  0
   13.7778    7.2842   11.5365 O   0  0  0  0  0  0  0  0  0  0  0  0
   13.2810    6.5371   10.4308 C   0  0  0  0  0  0  0  0  0  0  0  0
   12.8647    7.3381    9.4395 F   0  0  0  0  0  0  0  0  0  0  0  0
   12.2092    5.8295   10.8581 F   0  0  0  0  0  0  0  0  0  0  0  0
   14.2038    5.6612    9.9962 F   0  0  0  0  0  0  0  0  0  0  0  0
   14.8500    9.2215   12.3039 C   0  0  0  0  0  0  0  0  0  0  0  0
   15.6539   10.3582   12.1244 C   0  0  0  0  0  0  0  0  0  0  0  0
   15.3845   11.4563   12.9425 N   0  0  0  0  0  0  0  0  0  0  0  0
  1  2  1  0
  2  3  1  0
  3  4  1  0
  4  5  1  0
  3  6  1  0
  6  7  2  0
  6  8  1  0
  8  9  1  0
  9 10  2  0
 10 11  1  0
 11 12  1  0
 11 13  2  0
 13 14  1  0
 14 15  1  0
 15 16  1  0
 15 17  1  0
 15 18  1  0
 13 19  1  0
 19 20  2  0
 20 21  1  0
 20  9  1  0
M  END
>  <original ID>  (86) 
LRCVCXAAQGNXSS-UHFFFAOYSA-N

>  <generation_date>  (86) 
None

>  <alias>  (86) 
None

>  <original SMILES>  (86) 
COC(OC)C(=O)Nc1cc(F)c(OC(F)(F)F)cc1N

>  <HIPPO ID>  (86) 
40536

>  <tags>  (86) 
[]

>  <ref_pdb>  (86) 
c0270a

>  <method>  (86) 
None

>  <ref_url>  (86) 
None

>  <inchikey>  (86) 
LRCVCXAAQGNXSS-UHFFFAOYSA-N

>  <submitter_email>  (86) 
None

>  <ref_mols>  (86) 
c0935a,c1353a

>  <submitter_name>  (86) 
None

$$$$
DLIJMNCNTSGBEG-UHFFFAOYSA-N
     RDKit          3D

 18 21  0  0  0  0  0  0  0  0999 V2000
   14.4429   13.5529   11.8617 N   0  0  0  0  0  0  0  0  0  0  0  0
   14.4403   12.2391   12.2816 C   0  0  0  0  0  0  0  0  0  0  0  0
   14.5367   11.9942   13.6545 C   0  0  0  0  0  0  0  0  0  0  0  0
   14.8812   10.7410   14.1747 C   0  0  0  0  0  0  0  0  0  0  0  0
   15.1299   10.5442   15.6108 C   0  0  0  0  0  0  0  0  0  0  0  0
   15.0787    9.3619   16.3385 C   0  0  0  0  0  0  0  0  0  0  0  0
   15.3856    9.7043   17.6629 C   0  0  0  0  0  0  0  0  0  0  0  0
   15.6242   11.0031   17.8013 N   0  0  0  0  0  0  0  0  0  0  0  0
   15.5171   11.4928   16.5536 N   0  0  0  0  0  0  0  0  0  0  0  0
   15.7198   12.9534   16.3534 C   0  0  0  0  0  0  0  0  0  0  0  0
   16.8357   13.7033   17.0522 C   0  0  0  0  0  0  0  0  0  0  0  0
   16.8724   13.5319   15.5687 C   0  0  0  0  0  0  0  0  0  0  0  0
   15.0012    9.6730   13.2710 C   0  0  0  0  0  0  0  0  0  0  0  0
   14.8783    9.9242   11.9118 C   0  0  0  0  0  0  0  0  0  0  0  0
   14.6572   11.1839   11.4236 C   0  0  0  0  0  0  0  0  0  0  0  0
   14.6645   11.2231   10.0602 O   0  0  0  0  0  0  0  0  0  0  0  0
   14.9176    9.8365    9.7408 C   0  0  0  0  0  0  0  0  0  0  0  0
   14.9782    8.9979   10.9150 O   0  0  0  0  0  0  0  0  0  0  0  0
  1  2  1  0
  2  3  2  0
  3  4  1  0
  4  5  1  0
  5  6  2  0
  6  7  1  0
  7  8  2  0
  8  9  1  0
  9 10  1  0
 10 11  1  0
 11 12  1  0
  4 13  2  0
 13 14  1  0
 14 15  2  0
 15 16  1  0
 16 17  1  0
 17 18  1  0
 15  2  1  0
  9  5  1  0
 12 10  1  0
 18 14  1  0
M  END
>  <original ID>  (87) 
DLIJMNCNTSGBEG-UHFFFAOYSA-N

>  <generation_date>  (87) 
None

>  <alias>  (87) 
None

>  <original SMILES>  (87) 
Nc1cc(-c2ccnn2C2CC2)cc2c1OCO2

>  <HIPPO ID>  (87) 
46376

>  <tags>  (87) 
[]

>  <ref_pdb>  (87) 
c0300a

>  <method>  (87) 
None

>  <ref_url>  (87) 
None

>  <inchikey>  (87) 
DLIJMNCNTSGBEG-UHFFFAOYSA-N

>  <submitter_email>  (87) 
None

>  <ref_mols>  (87) 
c0864a,c1338a

>  <submitter_name>  (87) 
None

$$$$
DLIJMNCNTSGBEG-UHFFFAOYSA-N
     RDKit          3D

 18 21  0  0  0  0  0  0  0  0999 V2000
   14.4325   13.5123   11.8108 N   0  0  0  0  0  0  0  0  0  0  0  0
   14.4377   12.2034   12.2432 C   0  0  0  0  0  0  0  0  0  0  0  0
   14.5280   11.9740   13.6193 C   0  0  0  0  0  0  0  0  0  0  0  0
   14.8744   10.7295   14.1568 C   0  0  0  0  0  0  0  0  0  0  0  0
   15.1248   10.5492   15.5965 C   0  0  0  0  0  0  0  0  0  0  0  0
   15.1184    9.3673   16.3272 C   0  0  0  0  0  0  0  0  0  0  0  0
   15.4187    9.7216   17.6496 C   0  0  0  0  0  0  0  0  0  0  0  0
   15.6111   11.0279   17.7861 N   0  0  0  0  0  0  0  0  0  0  0  0
   15.4695   11.5150   16.5401 N   0  0  0  0  0  0  0  0  0  0  0  0
   15.5892   12.9860   16.3441 C   0  0  0  0  0  0  0  0  0  0  0  0
   16.7448   13.6304   15.6149 C   0  0  0  0  0  0  0  0  0  0  0  0
   16.6139   13.8131   17.0927 C   0  0  0  0  0  0  0  0  0  0  0  0
   14.9991    9.6523   13.2633 C   0  0  0  0  0  0  0  0  0  0  0  0
   14.8810    9.8884   11.9000 C   0  0  0  0  0  0  0  0  0  0  0  0
   14.6640   11.1423   11.3973 C   0  0  0  0  0  0  0  0  0  0  0  0
   14.6754   11.1695   10.0339 O   0  0  0  0  0  0  0  0  0  0  0  0
   14.9292    9.7802    9.7298 C   0  0  0  0  0  0  0  0  0  0  0  0
   14.9821    8.9521   10.9125 O   0  0  0  0  0  0  0  0  0  0  0  0
  1  2  1  0
  2  3  2  0
  3  4  1  0
  4  5  1  0
  5  6  2  0
  6  7  1  0
  7  8  2  0
  8  9  1  0
  9 10  1  0
 10 11  1  0
 11 12  1  0
  4 13  2  0
 13 14  1  0
 14 15  2  0
 15 16  1  0
 16 17  1  0
 17 18  1  0
 15  2  1  0
  9  5  1  0
 12 10  1  0
 18 14  1  0
M  END
>  <original ID>  (88) 
DLIJMNCNTSGBEG-UHFFFAOYSA-N

>  <generation_date>  (88) 
None

>  <alias>  (88) 
None

>  <original SMILES>  (88) 
Nc1cc(-c2ccnn2C2CC2)cc2c1OCO2

>  <HIPPO ID>  (88) 
46724

>  <tags>  (88) 
[]

>  <ref_pdb>  (88) 
c0300a

>  <method>  (88) 
None

>  <ref_url>  (88) 
None

>  <inchikey>  (88) 
DLIJMNCNTSGBEG-UHFFFAOYSA-N

>  <submitter_email>  (88) 
None

>  <ref_mols>  (88) 
c0864a,c1203a

>  <submitter_name>  (88) 
None

$$$$
YICWQENYSHLWRK-UHFFFAOYSA-N
     RDKit          3D

 16 17  0  0  0  0  0  0  0  0999 V2000
   13.5987    7.0458   11.5026 O   0  0  0  0  0  0  0  0  0  0  0  0
   14.4924    8.0537   11.2886 C   0  0  0  0  0  0  0  0  0  0  0  0
   14.8558    8.3258    9.9844 C   0  0  0  0  0  0  0  0  0  0  0  0
   15.8422    9.2774    9.7417 C   0  0  0  0  0  0  0  0  0  0  0  0
   16.4579    9.9726   10.7926 C   0  0  0  0  0  0  0  0  0  0  0  0
   17.5796   10.7575   10.4972 N   0  0  0  0  0  0  0  0  0  0  0  0
   18.2674   11.8042   11.1356 C   0  0  0  0  0  0  0  0  0  0  0  0
   19.6538   11.9400   10.9166 C   0  0  0  0  0  0  0  0  0  0  0  0
   20.3040   11.0105   10.1689 O   0  0  0  0  0  0  0  0  0  0  0  0
   20.3601   12.9913   11.4640 C   0  0  0  0  0  0  0  0  0  0  0  0
   19.7804   13.9203   12.2345 N   0  0  0  0  0  0  0  0  0  0  0  0
   18.4604   13.7542   12.4947 C   0  0  0  0  0  0  0  0  0  0  0  0
   17.6784   12.7246   11.9922 C   0  0  0  0  0  0  0  0  0  0  0  0
   16.3720   12.6784   12.2933 F   0  0  0  0  0  0  0  0  0  0  0  0
   15.9545    9.7976   12.0818 C   0  0  0  0  0  0  0  0  0  0  0  0
   15.0023    8.8092   12.3397 C   0  0  0  0  0  0  0  0  0  0  0  0
  1  2  1  0
  2  3  2  0
  3  4  1  0
  4  5  2  0
  5  6  1  0
  6  7  1  0
  7  8  2  0
  8  9  1  0
  8 10  1  0
 10 11  2  0
 11 12  1  0
 12 13  2  0
 13 14  1  0
  5 15  1  0
 15 16  2  0
 16  2  1  0
 13  7  1  0
M  END
>  <original ID>  (89) 
YICWQENYSHLWRK-UHFFFAOYSA-N

>  <generation_date>  (89) 
None

>  <alias>  (89) 
None

>  <original SMILES>  (89) 
Oc1ccc(Nc2c(O)cncc2F)cc1

>  <HIPPO ID>  (89) 
46917

>  <tags>  (89) 
[]

>  <ref_pdb>  (89) 
c0270a

>  <method>  (89) 
None

>  <ref_url>  (89) 
None

>  <inchikey>  (89) 
YICWQENYSHLWRK-UHFFFAOYSA-N

>  <submitter_email>  (89) 
None

>  <ref_mols>  (89) 
c0935a,c1132a

>  <submitter_name>  (89) 
None

$$$$
WXSPHIXMURCCEZ-UHFFFAOYSA-N
     RDKit          3D

 16 17  0  0  0  0  0  0  0  0999 V2000
   21.2681   13.5789   11.7760 N   0  0  0  0  0  0  0  0  0  0  0  0
   20.3429   12.6730   11.2719 C   0  0  0  0  0  0  0  0  0  0  0  0
   20.8494   11.7480   10.4780 N   0  0  0  0  0  0  0  0  0  0  0  0
   19.9905   10.8318   10.0398 C   0  0  0  0  0  0  0  0  0  0  0  0
   18.6512   10.7860   10.3655 C   0  0  0  0  0  0  0  0  0  0  0  0
   18.1133   11.7393   11.1969 C   0  0  0  0  0  0  0  0  0  0  0  0
   16.7336   11.7344   11.4995 N   0  0  0  0  0  0  0  0  0  0  0  0
   15.9016   10.5938   11.3831 C   0  0  0  0  0  0  0  0  0  0  0  0
   15.5305   10.0776   10.1293 C   0  0  0  0  0  0  0  0  0  0  0  0
   14.8530    8.8628   10.0203 C   0  0  0  0  0  0  0  0  0  0  0  0
   14.5522    8.1540   11.1722 C   0  0  0  0  0  0  0  0  0  0  0  0
   13.8269    7.0070   11.0467 O   0  0  0  0  0  0  0  0  0  0  0  0
   14.9192    8.6369   12.4260 C   0  0  0  0  0  0  0  0  0  0  0  0
   15.5818    9.8607   12.5293 C   0  0  0  0  0  0  0  0  0  0  0  0
   18.9939   12.7229   11.6369 C   0  0  0  0  0  0  0  0  0  0  0  0
   18.5691   13.7336   12.4485 O   0  0  0  0  0  0  0  0  0  0  0  0
  1  2  1  0
  2  3  2  0
  3  4  1  0
  4  5  2  0
  5  6  1  0
  6  7  1  0
  7  8  1  0
  8  9  2  0
  9 10  1  0
 10 11  2  0
 11 12  1  0
 11 13  1  0
 13 14  2  0
  6 15  2  0
 15 16  1  0
 15  2  1  0
 14  8  1  0
M  END
>  <original ID>  (90) 
WXSPHIXMURCCEZ-UHFFFAOYSA-N

>  <generation_date>  (90) 
None

>  <alias>  (90) 
None

>  <original SMILES>  (90) 
Nc1nccc(Nc2ccc(O)cc2)c1O

>  <HIPPO ID>  (90) 
46925

>  <tags>  (90) 
[]

>  <ref_pdb>  (90) 
c0270a

>  <method>  (90) 
None

>  <ref_url>  (90) 
None

>  <inchikey>  (90) 
WXSPHIXMURCCEZ-UHFFFAOYSA-N

>  <submitter_email>  (90) 
None

>  <ref_mols>  (90) 
c0935a,c1132a

>  <submitter_name>  (90) 
None

$$$$
RCIQBYZSSNRPFS-UHFFFAOYSA-N
     RDKit          3D

 16 17  0  0  0  0  0  0  0  0999 V2000
   13.6236    7.1163   11.3794 O   0  0  0  0  0  0  0  0  0  0  0  0
   14.5091    8.1287   11.1569 C   0  0  0  0  0  0  0  0  0  0  0  0
   14.9079    8.4399    9.8719 C   0  0  0  0  0  0  0  0  0  0  0  0
   15.9051    9.3913    9.6892 C   0  0  0  0  0  0  0  0  0  0  0  0
   16.4909   10.0648   10.7737 C   0  0  0  0  0  0  0  0  0  0  0  0
   17.6202   10.8488   10.5006 N   0  0  0  0  0  0  0  0  0  0  0  0
   18.3282   11.8686   11.1540 C   0  0  0  0  0  0  0  0  0  0  0  0
   17.7332   12.7951   11.9955 C   0  0  0  0  0  0  0  0  0  0  0  0
   18.5306   13.8088   12.5060 C   0  0  0  0  0  0  0  0  0  0  0  0
   19.8529   13.9506   12.2580 N   0  0  0  0  0  0  0  0  0  0  0  0
   20.4293   13.0129   11.4971 C   0  0  0  0  0  0  0  0  0  0  0  0
   19.7154   11.9749   10.9430 C   0  0  0  0  0  0  0  0  0  0  0  0
   20.3479   11.0361   10.1918 O   0  0  0  0  0  0  0  0  0  0  0  0
   15.9298    9.8594   12.0356 C   0  0  0  0  0  0  0  0  0  0  0  0
   16.3813   10.5195   13.1120 F   0  0  0  0  0  0  0  0  0  0  0  0
   14.9802    8.8602   12.2396 C   0  0  0  0  0  0  0  0  0  0  0  0
  1  2  1  0
  2  3  2  0
  3  4  1  0
  4  5  2  0
  5  6  1  0
  6  7  1  0
  7  8  2  0
  8  9  1  0
  9 10  2  0
 10 11  1  0
 11 12  2  0
 12 13  1  0
  5 14  1  0
 14 15  1  0
 14 16  2  0
 16  2  1  0
 12  7  1  0
M  END
>  <original ID>  (91) 
RCIQBYZSSNRPFS-UHFFFAOYSA-N

>  <generation_date>  (91) 
None

>  <alias>  (91) 
None

>  <original SMILES>  (91) 
Oc1ccc(Nc2ccncc2O)c(F)c1

>  <HIPPO ID>  (91) 
46928

>  <tags>  (91) 
[]

>  <ref_pdb>  (91) 
c0270a

>  <method>  (91) 
None

>  <ref_url>  (91) 
None

>  <inchikey>  (91) 
RCIQBYZSSNRPFS-UHFFFAOYSA-N

>  <submitter_email>  (91) 
None

>  <ref_mols>  (91) 
c0935a,c1132a

>  <submitter_name>  (91) 
None

$$$$
ZIUQIFJMKDQIMW-UHFFFAOYSA-N
     RDKit          3D

 16 17  0  0  0  0  0  0  0  0999 V2000
   13.6350    7.0584   11.3788 O   0  0  0  0  0  0  0  0  0  0  0  0
   14.5064    8.0958   11.2316 C   0  0  0  0  0  0  0  0  0  0  0  0
   14.9347    8.4049    9.9614 C   0  0  0  0  0  0  0  0  0  0  0  0
   15.8968    9.3978    9.7969 C   0  0  0  0  0  0  0  0  0  0  0  0
   16.4304   10.1241   10.8861 C   0  0  0  0  0  0  0  0  0  0  0  0
   17.5348   10.9398   10.5737 N   0  0  0  0  0  0  0  0  0  0  0  0
   18.3066   11.9499   11.1732 C   0  0  0  0  0  0  0  0  0  0  0  0
   17.7816   12.9685   11.9504 C   0  0  0  0  0  0  0  0  0  0  0  0
   18.6510   13.9370   12.4342 C   0  0  0  0  0  0  0  0  0  0  0  0
   19.9810   13.9690   12.1953 N   0  0  0  0  0  0  0  0  0  0  0  0
   20.4855   12.9681   11.4656 C   0  0  0  0  0  0  0  0  0  0  0  0
   19.6973   11.9629   10.9505 C   0  0  0  0  0  0  0  0  0  0  0  0
   20.2605   10.9719   10.2122 O   0  0  0  0  0  0  0  0  0  0  0  0
   15.8316    9.9129   12.1357 C   0  0  0  0  0  0  0  0  0  0  0  0
   16.1940   10.7936   13.5716 Cl  0  0  0  0  0  0  0  0  0  0  0  0
   14.9199    8.8609   12.3137 C   0  0  0  0  0  0  0  0  0  0  0  0
  1  2  1  0
  2  3  2  0
  3  4  1  0
  4  5  2  0
  5  6  1  0
  6  7  1  0
  7  8  2  0
  8  9  1  0
  9 10  2  0
 10 11  1  0
 11 12  2  0
 12 13  1  0
  5 14  1  0
 14 15  1  0
 14 16  2  0
 16  2  1  0
 12  7  1  0
M  END
>  <original ID>  (92) 
ZIUQIFJMKDQIMW-UHFFFAOYSA-N

>  <generation_date>  (92) 
None

>  <alias>  (92) 
None

>  <original SMILES>  (92) 
Oc1ccc(Nc2ccncc2O)c(Cl)c1

>  <HIPPO ID>  (92) 
46941

>  <tags>  (92) 
[]

>  <ref_pdb>  (92) 
c0270a

>  <method>  (92) 
None

>  <ref_url>  (92) 
None

>  <inchikey>  (92) 
ZIUQIFJMKDQIMW-UHFFFAOYSA-N

>  <submitter_email>  (92) 
None

>  <ref_mols>  (92) 
c0935a,c1132a

>  <submitter_name>  (92) 
None

$$$$
CJZJNZONCOHLPG-UHFFFAOYSA-N
     RDKit          3D

 17 18  0  0  0  0  0  0  0  0999 V2000
   21.4342   11.4899   10.5672 C   0  0  0  0  0  0  0  0  0  0  0  0
   20.0139   11.3761   10.5055 O   0  0  0  0  0  0  0  0  0  0  0  0
   19.2789   12.2397   11.2764 C   0  0  0  0  0  0  0  0  0  0  0  0
   17.8919   11.9899   11.3163 C   0  0  0  0  0  0  0  0  0  0  0  0
   17.3491   10.9217   10.5753 N   0  0  0  0  0  0  0  0  0  0  0  0
   16.3262   10.0010   10.8360 C   0  0  0  0  0  0  0  0  0  0  0  0
   15.7524    9.3150    9.7581 C   0  0  0  0  0  0  0  0  0  0  0  0
   14.8081    8.3131    9.9653 C   0  0  0  0  0  0  0  0  0  0  0  0
   14.4547    7.9740   11.2580 C   0  0  0  0  0  0  0  0  0  0  0  0
   13.5692    6.9513   11.4297 O   0  0  0  0  0  0  0  0  0  0  0  0
   14.9545    8.6874   12.3421 C   0  0  0  0  0  0  0  0  0  0  0  0
   15.8578    9.7276   12.1234 C   0  0  0  0  0  0  0  0  0  0  0  0
   17.0773   12.7988   12.1128 C   0  0  0  0  0  0  0  0  0  0  0  0
   17.6502   13.8593   12.7872 C   0  0  0  0  0  0  0  0  0  0  0  0
   18.9677   14.1266   12.7695 N   0  0  0  0  0  0  0  0  0  0  0  0
   19.7562   13.2989   12.0431 C   0  0  0  0  0  0  0  0  0  0  0  0
   21.0727   13.5299   12.1357 F   0  0  0  0  0  0  0  0  0  0  0  0
  1  2  1  0
  2  3  1  0
  3  4  2  0
  4  5  1  0
  5  6  1  0
  6  7  2  0
  7  8  1  0
  8  9  2  0
  9 10  1  0
  9 11  1  0
 11 12  2  0
  4 13  1  0
 13 14  2  0
 14 15  1  0
 15 16  2  0
 16 17  1  0
 16  3  1  0
 12  6  1  0
M  END
>  <original ID>  (93) 
CJZJNZONCOHLPG-UHFFFAOYSA-N

>  <generation_date>  (93) 
None

>  <alias>  (93) 
None

>  <original SMILES>  (93) 
COc1c(Nc2ccc(O)cc2)ccnc1F

>  <HIPPO ID>  (93) 
46998

>  <tags>  (93) 
[]

>  <ref_pdb>  (93) 
c0270a

>  <method>  (93) 
None

>  <ref_url>  (93) 
None

>  <inchikey>  (93) 
CJZJNZONCOHLPG-UHFFFAOYSA-N

>  <submitter_email>  (93) 
None

>  <ref_mols>  (93) 
c0935a,c1132a

>  <submitter_name>  (93) 
None

$$$$
BGASODKXDLAXMN-UHFFFAOYSA-N
     RDKit          3D

 17 18  0  0  0  0  0  0  0  0999 V2000
   13.6834    7.0944   11.2285 O   0  0  0  0  0  0  0  0  0  0  0  0
   14.5346    8.1494   11.0926 C   0  0  0  0  0  0  0  0  0  0  0  0
   14.9250    8.5817    9.8475 C   0  0  0  0  0  0  0  0  0  0  0  0
   15.8507    9.6158    9.7634 C   0  0  0  0  0  0  0  0  0  0  0  0
   16.4005   10.2619   10.8998 C   0  0  0  0  0  0  0  0  0  0  0  0
   17.4370   11.1749   10.5993 N   0  0  0  0  0  0  0  0  0  0  0  0
   18.3478   12.0401   11.2551 C   0  0  0  0  0  0  0  0  0  0  0  0
   19.7198   11.8713   10.9430 C   0  0  0  0  0  0  0  0  0  0  0  0
   20.0743   10.8718   10.0943 O   0  0  0  0  0  0  0  0  0  0  0  0
   20.6989   12.7078   11.4405 C   0  0  0  0  0  0  0  0  0  0  0  0
   20.4108   13.7364   12.2369 N   0  0  0  0  0  0  0  0  0  0  0  0
   19.1021   13.9037   12.5483 C   0  0  0  0  0  0  0  0  0  0  0  0
   18.0465   13.1066   12.0960 C   0  0  0  0  0  0  0  0  0  0  0  0
   16.4621   13.6517   12.4639 Cl  0  0  0  0  0  0  0  0  0  0  0  0
   15.8543    9.9049   12.1359 C   0  0  0  0  0  0  0  0  0  0  0  0
   16.2498   10.6479   13.6332 Cl  0  0  0  0  0  0  0  0  0  0  0  0
   14.9662    8.8185   12.2303 C   0  0  0  0  0  0  0  0  0  0  0  0
  1  2  1  0
  2  3  2  0
  3  4  1  0
  4  5  2  0
  5  6  1  0
  6  7  1  0
  7  8  2  0
  8  9  1  0
  8 10  1  0
 10 11  2  0
 11 12  1  0
 12 13  2  0
 13 14  1  0
  5 15  1  0
 15 16  1  0
 15 17  2  0
 17  2  1  0
 13  7  1  0
M  END
>  <original ID>  (94) 
BGASODKXDLAXMN-UHFFFAOYSA-N

>  <generation_date>  (94) 
None

>  <alias>  (94) 
None

>  <original SMILES>  (94) 
Oc1ccc(Nc2c(O)cncc2Cl)c(Cl)c1

>  <HIPPO ID>  (94) 
47006

>  <tags>  (94) 
[]

>  <ref_pdb>  (94) 
c0270a

>  <method>  (94) 
None

>  <ref_url>  (94) 
None

>  <inchikey>  (94) 
BGASODKXDLAXMN-UHFFFAOYSA-N

>  <submitter_email>  (94) 
None

>  <ref_mols>  (94) 
c0935a,c1132a

>  <submitter_name>  (94) 
None

$$$$
DWYVGKQQVKIZND-UHFFFAOYSA-N
     RDKit          3D

 17 18  0  0  0  0  0  0  0  0999 V2000
   13.6469    6.8502   11.4569 O   0  0  0  0  0  0  0  0  0  0  0  0
   14.4811    7.9006   11.2156 C   0  0  0  0  0  0  0  0  0  0  0  0
   14.7029    8.3356    9.9195 C   0  0  0  0  0  0  0  0  0  0  0  0
   15.5296    9.4328    9.7079 C   0  0  0  0  0  0  0  0  0  0  0  0
   16.1396   10.1041   10.7815 C   0  0  0  0  0  0  0  0  0  0  0  0
   16.8963   11.2625   10.4952 N   0  0  0  0  0  0  0  0  0  0  0  0
   18.1913   11.6071   10.9592 C   0  0  0  0  0  0  0  0  0  0  0  0
   19.2903   10.9597   10.4128 C   0  0  0  0  0  0  0  0  0  0  0  0
   20.5871   11.2912   10.5738 N   0  0  0  0  0  0  0  0  0  0  0  0
   20.8271   12.4120   11.2612 C   0  0  0  0  0  0  0  0  0  0  0  0
   19.8122   13.1713   11.8217 C   0  0  0  0  0  0  0  0  0  0  0  0
   20.0896   14.3602   12.4188 O   0  0  0  0  0  0  0  0  0  0  0  0
   18.4848   12.7368   11.7174 C   0  0  0  0  0  0  0  0  0  0  0  0
   17.1129   13.6934   12.6189 Br  0  0  0  0  0  0  0  0  0  0  0  0
   15.8514    9.6759   12.0771 C   0  0  0  0  0  0  0  0  0  0  0  0
   16.3362   10.3433   13.1346 F   0  0  0  0  0  0  0  0  0  0  0  0
   15.0452    8.5634   12.3001 C   0  0  0  0  0  0  0  0  0  0  0  0
  1  2  1  0
  2  3  2  0
  3  4  1  0
  4  5  2  0
  5  6  1  0
  6  7  1  0
  7  8  2  0
  8  9  1  0
  9 10  2  0
 10 11  1  0
 11 12  1  0
 11 13  2  0
 13 14  1  0
  5 15  1  0
 15 16  1  0
 15 17  2  0
 17  2  1  0
 13  7  1  0
M  END
>  <original ID>  (95) 
DWYVGKQQVKIZND-UHFFFAOYSA-N

>  <generation_date>  (95) 
None

>  <alias>  (95) 
None

>  <original SMILES>  (95) 
Oc1ccc(Nc2cncc(O)c2Br)c(F)c1

>  <HIPPO ID>  (95) 
47031

>  <tags>  (95) 
[]

>  <ref_pdb>  (95) 
c0270a

>  <method>  (95) 
None

>  <ref_url>  (95) 
None

>  <inchikey>  (95) 
DWYVGKQQVKIZND-UHFFFAOYSA-N

>  <submitter_email>  (95) 
None

>  <ref_mols>  (95) 
c0935a,c1132a

>  <submitter_name>  (95) 
None

$$$$
BSVOLRAMNKMGKI-UHFFFAOYSA-N
     RDKit          3D

 17 18  0  0  0  0  0  0  0  0999 V2000
   13.7054    7.1326   11.4446 O   0  0  0  0  0  0  0  0  0  0  0  0
   14.5631    8.1790   11.2792 C   0  0  0  0  0  0  0  0  0  0  0  0
   14.9895    8.4664   10.0038 C   0  0  0  0  0  0  0  0  0  0  0  0
   15.9377    9.4698    9.8228 C   0  0  0  0  0  0  0  0  0  0  0  0
   16.4714   10.2212   10.8986 C   0  0  0  0  0  0  0  0  0  0  0  0
   17.5631   11.0471   10.5588 N   0  0  0  0  0  0  0  0  0  0  0  0
   18.4145   11.9942   11.1660 C   0  0  0  0  0  0  0  0  0  0  0  0
   19.8002   11.8920   10.9199 C   0  0  0  0  0  0  0  0  0  0  0  0
   20.2555   10.8777   10.1404 O   0  0  0  0  0  0  0  0  0  0  0  0
   20.6978   12.8088   11.4303 C   0  0  0  0  0  0  0  0  0  0  0  0
   20.3116   13.8492   12.1735 N   0  0  0  0  0  0  0  0  0  0  0  0
   18.9842   13.9478   12.4224 C   0  0  0  0  0  0  0  0  0  0  0  0
   18.0185   13.0676   11.9492 C   0  0  0  0  0  0  0  0  0  0  0  0
   16.7314   13.3680   12.1529 F   0  0  0  0  0  0  0  0  0  0  0  0
   15.8804   10.0225   12.1520 C   0  0  0  0  0  0  0  0  0  0  0  0
   16.2568   10.9198   13.5718 Cl  0  0  0  0  0  0  0  0  0  0  0  0
   14.9699    8.9697   12.3469 C   0  0  0  0  0  0  0  0  0  0  0  0
  1  2  1  0
  2  3  2  0
  3  4  1  0
  4  5  2  0
  5  6  1  0
  6  7  1  0
  7  8  2  0
  8  9  1  0
  8 10  1  0
 10 11  2  0
 11 12  1  0
 12 13  2  0
 13 14  1  0
  5 15  1  0
 15 16  1  0
 15 17  2  0
 17  2  1  0
 13  7  1  0
M  END
>  <original ID>  (96) 
BSVOLRAMNKMGKI-UHFFFAOYSA-N

>  <generation_date>  (96) 
None

>  <alias>  (96) 
None

>  <original SMILES>  (96) 
Oc1ccc(Nc2c(O)cncc2F)c(Cl)c1

>  <HIPPO ID>  (96) 
47042

>  <tags>  (96) 
[]

>  <ref_pdb>  (96) 
c0270a

>  <method>  (96) 
None

>  <ref_url>  (96) 
None

>  <inchikey>  (96) 
BSVOLRAMNKMGKI-UHFFFAOYSA-N

>  <submitter_email>  (96) 
None

>  <ref_mols>  (96) 
c0935a,c1132a

>  <submitter_name>  (96) 
None

$$$$
MKKFFLOBIPTFPF-UHFFFAOYSA-N
     RDKit          3D

 17 18  0  0  0  0  0  0  0  0999 V2000
   13.5909    7.0741   11.3276 O   0  0  0  0  0  0  0  0  0  0  0  0
   14.4800    8.0869   11.1229 C   0  0  0  0  0  0  0  0  0  0  0  0
   14.8593    8.4390    9.8420 C   0  0  0  0  0  0  0  0  0  0  0  0
   15.8590    9.3906    9.6738 C   0  0  0  0  0  0  0  0  0  0  0  0
   16.4671   10.0230   10.7703 C   0  0  0  0  0  0  0  0  0  0  0  0
   17.5974   10.8085   10.5058 N   0  0  0  0  0  0  0  0  0  0  0  0
   18.2946   11.8349   11.1640 C   0  0  0  0  0  0  0  0  0  0  0  0
   19.6811   11.9547   10.9358 C   0  0  0  0  0  0  0  0  0  0  0  0
   20.3095   11.0240   10.1697 O   0  0  0  0  0  0  0  0  0  0  0  0
   20.4058   12.9905   11.4864 C   0  0  0  0  0  0  0  0  0  0  0  0
   19.8435   13.9224   12.2637 N   0  0  0  0  0  0  0  0  0  0  0  0
   18.5238   13.7695   12.5360 C   0  0  0  0  0  0  0  0  0  0  0  0
   17.7244   12.7533   12.0340 C   0  0  0  0  0  0  0  0  0  0  0  0
   16.4225   12.7214   12.3511 F   0  0  0  0  0  0  0  0  0  0  0  0
   15.9309    9.7729   12.0355 C   0  0  0  0  0  0  0  0  0  0  0  0
   16.4258   10.3716   13.1286 F   0  0  0  0  0  0  0  0  0  0  0  0
   14.9761    8.7758   12.2217 C   0  0  0  0  0  0  0  0  0  0  0  0
  1  2  1  0
  2  3  2  0
  3  4  1  0
  4  5  2  0
  5  6  1  0
  6  7  1  0
  7  8  2  0
  8  9  1  0
  8 10  1  0
 10 11  2  0
 11 12  1  0
 12 13  2  0
 13 14  1  0
  5 15  1  0
 15 16  1  0
 15 17  2  0
 17  2  1  0
 13  7  1  0
M  END
>  <original ID>  (97) 
MKKFFLOBIPTFPF-UHFFFAOYSA-N

>  <generation_date>  (97) 
None

>  <alias>  (97) 
None

>  <original SMILES>  (97) 
Oc1ccc(Nc2c(O)cncc2F)c(F)c1

>  <HIPPO ID>  (97) 
47054

>  <tags>  (97) 
[]

>  <ref_pdb>  (97) 
c0270a

>  <method>  (97) 
None

>  <ref_url>  (97) 
None

>  <inchikey>  (97) 
MKKFFLOBIPTFPF-UHFFFAOYSA-N

>  <submitter_email>  (97) 
None

>  <ref_mols>  (97) 
c0935a,c1132a

>  <submitter_name>  (97) 
None

$$$$
KLTUOZWSSHPRTO-UHFFFAOYSA-N
     RDKit          3D

 17 18  0  0  0  0  0  0  0  0999 V2000
   21.1744   13.7413   11.5892 N   0  0  0  0  0  0  0  0  0  0  0  0
   20.2801   12.7470   11.2465 C   0  0  0  0  0  0  0  0  0  0  0  0
   20.8003   11.7976   10.4843 N   0  0  0  0  0  0  0  0  0  0  0  0
   19.9658   10.8534   10.0658 C   0  0  0  0  0  0  0  0  0  0  0  0
   18.6271   10.7913   10.3846 C   0  0  0  0  0  0  0  0  0  0  0  0
   18.0705   11.7566   11.1904 C   0  0  0  0  0  0  0  0  0  0  0  0
   16.6855   11.7309   11.5033 N   0  0  0  0  0  0  0  0  0  0  0  0
   15.8459   10.6004   11.2474 C   0  0  0  0  0  0  0  0  0  0  0  0
   15.5266   10.2148    9.9373 C   0  0  0  0  0  0  0  0  0  0  0  0
   14.8669    9.0160    9.6737 C   0  0  0  0  0  0  0  0  0  0  0  0
   14.5352    8.1803   10.7278 C   0  0  0  0  0  0  0  0  0  0  0  0
   13.8723    7.0112   10.4988 O   0  0  0  0  0  0  0  0  0  0  0  0
   14.8238    8.5391   12.0409 C   0  0  0  0  0  0  0  0  0  0  0  0
   15.4514    9.7585   12.2965 C   0  0  0  0  0  0  0  0  0  0  0  0
   15.7540   10.2358   13.9267 Cl  0  0  0  0  0  0  0  0  0  0  0  0
   18.9294   12.7763   11.6068 C   0  0  0  0  0  0  0  0  0  0  0  0
   18.4754   13.8046   12.3780 O   0  0  0  0  0  0  0  0  0  0  0  0
  1  2  1  0
  2  3  2  0
  3  4  1  0
  4  5  2  0
  5  6  1  0
  6  7  1  0
  7  8  1  0
  8  9  2  0
  9 10  1  0
 10 11  2  0
 11 12  1  0
 11 13  1  0
 13 14  2  0
 14 15  1  0
  6 16  2  0
 16 17  1  0
 16  2  1  0
 14  8  1  0
M  END
>  <original ID>  (98) 
KLTUOZWSSHPRTO-UHFFFAOYSA-N

>  <generation_date>  (98) 
None

>  <alias>  (98) 
None

>  <original SMILES>  (98) 
Nc1nccc(Nc2ccc(O)cc2Cl)c1O

>  <HIPPO ID>  (98) 
47079

>  <tags>  (98) 
[]

>  <ref_pdb>  (98) 
c0270a

>  <method>  (98) 
None

>  <ref_url>  (98) 
None

>  <inchikey>  (98) 
KLTUOZWSSHPRTO-UHFFFAOYSA-N

>  <submitter_email>  (98) 
None

>  <ref_mols>  (98) 
c0935a,c1132a

>  <submitter_name>  (98) 
None

$$$$
KISKJTLJHAHVJV-UHFFFAOYSA-N
     RDKit          3D

 17 18  0  0  0  0  0  0  0  0999 V2000
   21.4685   11.4900   10.5683 C   0  0  0  0  0  0  0  0  0  0  0  0
   20.0516   11.3968   10.4416 O   0  0  0  0  0  0  0  0  0  0  0  0
   19.3102   12.2600   11.2035 C   0  0  0  0  0  0  0  0  0  0  0  0
   19.7998   13.3654   11.8816 C   0  0  0  0  0  0  0  0  0  0  0  0
   19.0324   14.1874   12.6347 N   0  0  0  0  0  0  0  0  0  0  0  0
   17.7205   13.8910   12.7503 C   0  0  0  0  0  0  0  0  0  0  0  0
   16.8882   14.8025   13.5981 C   0  0  0  0  0  0  0  0  0  0  0  0
   17.1441   12.7913   12.1264 C   0  0  0  0  0  0  0  0  0  0  0  0
   17.9338   11.9817   11.3069 C   0  0  0  0  0  0  0  0  0  0  0  0
   17.3897   10.8940   10.5974 N   0  0  0  0  0  0  0  0  0  0  0  0
   16.3468    9.9960   10.8517 C   0  0  0  0  0  0  0  0  0  0  0  0
   15.7724    9.3126    9.7719 C   0  0  0  0  0  0  0  0  0  0  0  0
   14.8201    8.3175    9.9758 C   0  0  0  0  0  0  0  0  0  0  0  0
   14.4587    7.9836   11.2675 C   0  0  0  0  0  0  0  0  0  0  0  0
   13.5705    6.9627   11.4373 O   0  0  0  0  0  0  0  0  0  0  0  0
   14.9552    8.6985   12.3525 C   0  0  0  0  0  0  0  0  0  0  0  0
   15.8672    9.7317   12.1366 C   0  0  0  0  0  0  0  0  0  0  0  0
  1  2  1  0
  2  3  1  0
  3  4  2  0
  4  5  1  0
  5  6  2  0
  6  7  1  0
  6  8  1  0
  8  9  2  0
  9 10  1  0
 10 11  1  0
 11 12  2  0
 12 13  1  0
 13 14  2  0
 14 15  1  0
 14 16  1  0
 16 17  2  0
  9  3  1  0
 17 11  1  0
M  END
>  <original ID>  (99) 
KISKJTLJHAHVJV-UHFFFAOYSA-N

>  <generation_date>  (99) 
None

>  <alias>  (99) 
None

>  <original SMILES>  (99) 
COc1cnc(C)cc1Nc1ccc(O)cc1

>  <HIPPO ID>  (99) 
47086

>  <tags>  (99) 
[]

>  <ref_pdb>  (99) 
c0270a

>  <method>  (99) 
None

>  <ref_url>  (99) 
None

>  <inchikey>  (99) 
KISKJTLJHAHVJV-UHFFFAOYSA-N

>  <submitter_email>  (99) 
None

>  <ref_mols>  (99) 
c0935a,c1132a

>  <submitter_name>  (99) 
None

$$$$
RSJUESSQJIUZGW-UHFFFAOYSA-N
     RDKit          3D

 17 18  0  0  0  0  0  0  0  0999 V2000
   21.3544   13.6507   11.5938 N   0  0  0  0  0  0  0  0  0  0  0  0
   20.4353   12.6870   11.2056 C   0  0  0  0  0  0  0  0  0  0  0  0
   20.9360   11.7217   10.4573 N   0  0  0  0  0  0  0  0  0  0  0  0
   20.0667   10.8106   10.0314 C   0  0  0  0  0  0  0  0  0  0  0  0
   18.7219   10.7985   10.3369 C   0  0  0  0  0  0  0  0  0  0  0  0
   18.1928   11.7763   11.1440 C   0  0  0  0  0  0  0  0  0  0  0  0
   16.8073   11.7999   11.4291 N   0  0  0  0  0  0  0  0  0  0  0  0
   15.9573   10.6658   11.3179 C   0  0  0  0  0  0  0  0  0  0  0  0
   15.5822   10.1253   10.0782 C   0  0  0  0  0  0  0  0  0  0  0  0
   14.8933    8.9115   10.0005 C   0  0  0  0  0  0  0  0  0  0  0  0
   14.5838    8.2280   11.1684 C   0  0  0  0  0  0  0  0  0  0  0  0
   13.8590    7.0785   11.0623 O   0  0  0  0  0  0  0  0  0  0  0  0
   14.9448    8.7379   12.4103 C   0  0  0  0  0  0  0  0  0  0  0  0
   15.6145    9.9548   12.4692 C   0  0  0  0  0  0  0  0  0  0  0  0
   15.9797   10.4416   13.6635 F   0  0  0  0  0  0  0  0  0  0  0  0
   19.0873   12.7544   11.5735 C   0  0  0  0  0  0  0  0  0  0  0  0
   18.6892   13.7431   12.4252 O   0  0  0  0  0  0  0  0  0  0  0  0
  1  2  1  0
  2  3  2  0
  3  4  1  0
  4  5  2  0
  5  6  1  0
  6  7  1  0
  7  8  1  0
  8  9  2  0
  9 10  1  0
 10 11  2  0
 11 12  1  0
 11 13  1  0
 13 14  2  0
 14 15  1  0
  6 16  2  0
 16 17  1  0
 16  2  1  0
 14  8  1  0
M  END
>  <original ID>  (100) 
RSJUESSQJIUZGW-UHFFFAOYSA-N

>  <generation_date>  (100) 
None

>  <alias>  (100) 
None

>  <original SMILES>  (100) 
Nc1nccc(Nc2ccc(O)cc2F)c1O

>  <HIPPO ID>  (100) 
47088

>  <tags>  (100) 
[]

>  <ref_pdb>  (100) 
c0270a

>  <method>  (100) 
None

>  <ref_url>  (100) 
None

>  <inchikey>  (100) 
RSJUESSQJIUZGW-UHFFFAOYSA-N

>  <submitter_email>  (100) 
None

>  <ref_mols>  (100) 
c0935a,c1132a

>  <submitter_name>  (100) 
None

$$$$
FIPJLAMPVMWVFP-UHFFFAOYSA-N
     RDKit          3D

 17 18  0  0  0  0  0  0  0  0999 V2000
   21.4153   11.3256   10.5105 C   0  0  0  0  0  0  0  0  0  0  0  0
   19.9969   11.3760   10.4862 O   0  0  0  0  0  0  0  0  0  0  0  0
   19.3219   12.2489   11.2957 C   0  0  0  0  0  0  0  0  0  0  0  0
   17.9252   12.0077   11.3357 C   0  0  0  0  0  0  0  0  0  0  0  0
   17.3828   10.9509   10.5754 N   0  0  0  0  0  0  0  0  0  0  0  0
   16.3433   10.0393   10.7925 C   0  0  0  0  0  0  0  0  0  0  0  0
   15.7669    9.4201    9.6767 C   0  0  0  0  0  0  0  0  0  0  0  0
   14.8083    8.4238    9.8173 C   0  0  0  0  0  0  0  0  0  0  0  0
   14.4519    8.0109   11.0873 C   0  0  0  0  0  0  0  0  0  0  0  0
   13.5733    6.9838   11.2625 O   0  0  0  0  0  0  0  0  0  0  0  0
   14.9506    8.6598   12.2102 C   0  0  0  0  0  0  0  0  0  0  0  0
   15.8610    9.7070   12.0591 C   0  0  0  0  0  0  0  0  0  0  0  0
   17.1032   12.8025   12.1363 C   0  0  0  0  0  0  0  0  0  0  0  0
   17.6731   13.8550   12.8182 C   0  0  0  0  0  0  0  0  0  0  0  0
   18.9920   14.1142   12.8085 N   0  0  0  0  0  0  0  0  0  0  0  0
   19.7954   13.2932   12.0851 C   0  0  0  0  0  0  0  0  0  0  0  0
   21.4469   13.6852   12.3540 Cl  0  0  0  0  0  0  0  0  0  0  0  0
  1  2  1  0
  2  3  1  0
  3  4  2  0
  4  5  1  0
  5  6  1  0
  6  7  2  0
  7  8  1  0
  8  9  2  0
  9 10  1  0
  9 11  1  0
 11 12  2  0
  4 13  1  0
 13 14  2  0
 14 15  1  0
 15 16  2  0
 16 17  1  0
 16  3  1  0
 12  6  1  0
M  END
>  <original ID>  (101) 
FIPJLAMPVMWVFP-UHFFFAOYSA-N

>  <generation_date>  (101) 
None

>  <alias>  (101) 
None

>  <original SMILES>  (101) 
COc1c(Nc2ccc(O)cc2)ccnc1Cl

>  <HIPPO ID>  (101) 
47091

>  <tags>  (101) 
[]

>  <ref_pdb>  (101) 
c0270a

>  <method>  (101) 
None

>  <ref_url>  (101) 
None

>  <inchikey>  (101) 
FIPJLAMPVMWVFP-UHFFFAOYSA-N

>  <submitter_email>  (101) 
None

>  <ref_mols>  (101) 
c0935a,c1132a

>  <submitter_name>  (101) 
None

$$$$
QYKMQFOMBRLRBF-UHFFFAOYSA-N
     RDKit          3D

 17 18  0  0  0  0  0  0  0  0999 V2000
   21.4366   11.1823   10.6374 C   0  0  0  0  0  0  0  0  0  0  0  0
   20.0567   11.3867   10.3468 O   0  0  0  0  0  0  0  0  0  0  0  0
   19.3719   12.2520   11.1641 C   0  0  0  0  0  0  0  0  0  0  0  0
   17.9916   11.9752   11.3036 C   0  0  0  0  0  0  0  0  0  0  0  0
   17.4306   10.9029   10.5846 N   0  0  0  0  0  0  0  0  0  0  0  0
   16.3676   10.0214   10.8031 C   0  0  0  0  0  0  0  0  0  0  0  0
   15.7856    9.4039    9.6885 C   0  0  0  0  0  0  0  0  0  0  0  0
   14.8161    8.4186    9.8310 C   0  0  0  0  0  0  0  0  0  0  0  0
   14.4527    8.0164   11.1023 C   0  0  0  0  0  0  0  0  0  0  0  0
   13.5690    6.9939   11.2804 O   0  0  0  0  0  0  0  0  0  0  0  0
   14.9515    8.6695   12.2228 C   0  0  0  0  0  0  0  0  0  0  0  0
   15.8740    9.7059   12.0690 C   0  0  0  0  0  0  0  0  0  0  0  0
   17.2288   12.7690   12.1541 C   0  0  0  0  0  0  0  0  0  0  0  0
   17.8439   13.8421   12.7683 C   0  0  0  0  0  0  0  0  0  0  0  0
   19.1496   14.1510   12.6193 N   0  0  0  0  0  0  0  0  0  0  0  0
   19.9024   13.3588   11.8316 C   0  0  0  0  0  0  0  0  0  0  0  0
   21.2355   13.7506   11.7240 N   0  0  0  0  0  0  0  0  0  0  0  0
  1  2  1  0
  2  3  1  0
  3  4  2  0
  4  5  1  0
  5  6  1  0
  6  7  2  0
  7  8  1  0
  8  9  2  0
  9 10  1  0
  9 11  1  0
 11 12  2  0
  4 13  1  0
 13 14  2  0
 14 15  1  0
 15 16  2  0
 16 17  1  0
 16  3  1  0
 12  6  1  0
M  END
>  <original ID>  (102) 
QYKMQFOMBRLRBF-UHFFFAOYSA-N

>  <generation_date>  (102) 
None

>  <alias>  (102) 
None

>  <original SMILES>  (102) 
COc1c(Nc2ccc(O)cc2)ccnc1N

>  <HIPPO ID>  (102) 
47093

>  <tags>  (102) 
[]

>  <ref_pdb>  (102) 
c0270a

>  <method>  (102) 
None

>  <ref_url>  (102) 
None

>  <inchikey>  (102) 
QYKMQFOMBRLRBF-UHFFFAOYSA-N

>  <submitter_email>  (102) 
None

>  <ref_mols>  (102) 
c0935a,c1132a

>  <submitter_name>  (102) 
None

$$$$
PXQXTBGOMUECSJ-UHFFFAOYSA-N
     RDKit          3D

 17 18  0  0  0  0  0  0  0  0999 V2000
   13.1515    6.3733   10.8808 C   0  0  0  0  0  0  0  0  0  0  0  0
   13.6881    7.2437   11.8596 O   0  0  0  0  0  0  0  0  0  0  0  0
   14.5731    8.2028   11.4478 C   0  0  0  0  0  0  0  0  0  0  0  0
   15.0000    8.3724   10.1362 C   0  0  0  0  0  0  0  0  0  0  0  0
   15.9702    9.3274    9.8408 C   0  0  0  0  0  0  0  0  0  0  0  0
   16.5446   10.1184   10.8413 C   0  0  0  0  0  0  0  0  0  0  0  0
   17.6581   10.8965   10.5063 N   0  0  0  0  0  0  0  0  0  0  0  0
   18.3951   11.9098   11.1394 C   0  0  0  0  0  0  0  0  0  0  0  0
   17.8235   12.8640   11.9681 C   0  0  0  0  0  0  0  0  0  0  0  0
   18.6482   13.8577   12.4746 C   0  0  0  0  0  0  0  0  0  0  0  0
   19.9754   13.9542   12.2355 N   0  0  0  0  0  0  0  0  0  0  0  0
   20.5258   12.9957   11.4803 C   0  0  0  0  0  0  0  0  0  0  0  0
   19.7841   11.9752   10.9303 C   0  0  0  0  0  0  0  0  0  0  0  0
   20.3904   11.0142   10.1871 O   0  0  0  0  0  0  0  0  0  0  0  0
   16.0011   10.0516   12.1197 C   0  0  0  0  0  0  0  0  0  0  0  0
   15.0401    9.0796   12.4432 C   0  0  0  0  0  0  0  0  0  0  0  0
   14.5394    9.0334   13.8600 C   0  0  0  0  0  0  0  0  0  0  0  0
  1  2  1  0
  2  3  1  0
  3  4  2  0
  4  5  1  0
  5  6  2  0
  6  7  1  0
  7  8  1  0
  8  9  2  0
  9 10  1  0
 10 11  2  0
 11 12  1  0
 12 13  2  0
 13 14  1  0
  6 15  1  0
 15 16  2  0
 16 17  1  0
 16  3  1  0
 13  8  1  0
M  END
>  <original ID>  (103) 
PXQXTBGOMUECSJ-UHFFFAOYSA-N

>  <generation_date>  (103) 
None

>  <alias>  (103) 
None

>  <original SMILES>  (103) 
COc1ccc(Nc2ccncc2O)cc1C

>  <HIPPO ID>  (103) 
47101

>  <tags>  (103) 
[]

>  <ref_pdb>  (103) 
c0270a

>  <method>  (103) 
None

>  <ref_url>  (103) 
None

>  <inchikey>  (103) 
PXQXTBGOMUECSJ-UHFFFAOYSA-N

>  <submitter_email>  (103) 
None

>  <ref_mols>  (103) 
c0935a,c1132a

>  <submitter_name>  (103) 
None

$$$$
KJZJEBABOFASRX-UHFFFAOYSA-N
     RDKit          3D

 17 18  0  0  0  0  0  0  0  0999 V2000
   13.3883    6.1739   10.6141 C   0  0  0  0  0  0  0  0  0  0  0  0
   13.6693    7.1443   11.6188 O   0  0  0  0  0  0  0  0  0  0  0  0
   14.5510    8.1421   11.2978 C   0  0  0  0  0  0  0  0  0  0  0  0
   14.9415    8.4250    9.9944 C   0  0  0  0  0  0  0  0  0  0  0  0
   15.9220    9.3824    9.7534 C   0  0  0  0  0  0  0  0  0  0  0  0
   16.5217   10.0947   10.7965 C   0  0  0  0  0  0  0  0  0  0  0  0
   17.6392   10.8779   10.4931 N   0  0  0  0  0  0  0  0  0  0  0  0
   18.3614   11.8882   11.1451 C   0  0  0  0  0  0  0  0  0  0  0  0
   17.7742   12.8234   11.9843 C   0  0  0  0  0  0  0  0  0  0  0  0
   18.5848   13.8227   12.5015 C   0  0  0  0  0  0  0  0  0  0  0  0
   19.9119   13.9355   12.2681 N   0  0  0  0  0  0  0  0  0  0  0  0
   20.4778   12.9909   11.5086 C   0  0  0  0  0  0  0  0  0  0  0  0
   19.7505   11.9700   10.9428 C   0  0  0  0  0  0  0  0  0  0  0  0
   20.3699   11.0240   10.1911 O   0  0  0  0  0  0  0  0  0  0  0  0
   16.0015    9.9472   12.0768 C   0  0  0  0  0  0  0  0  0  0  0  0
   15.0522    8.9500   12.3336 C   0  0  0  0  0  0  0  0  0  0  0  0
   14.4875    8.6932   14.3472 I   0  0  0  0  0  0  0  0  0  0  0  0
  1  2  1  0
  2  3  1  0
  3  4  2  0
  4  5  1  0
  5  6  2  0
  6  7  1  0
  7  8  1  0
  8  9  2  0
  9 10  1  0
 10 11  2  0
 11 12  1  0
 12 13  2  0
 13 14  1  0
  6 15  1  0
 15 16  2  0
 16 17  1  0
 16  3  1  0
 13  8  1  0
M  END
>  <original ID>  (104) 
KJZJEBABOFASRX-UHFFFAOYSA-N

>  <generation_date>  (104) 
None

>  <alias>  (104) 
None

>  <original SMILES>  (104) 
COc1ccc(Nc2ccncc2O)cc1I

>  <HIPPO ID>  (104) 
47104

>  <tags>  (104) 
[]

>  <ref_pdb>  (104) 
c0270a

>  <method>  (104) 
None

>  <ref_url>  (104) 
None

>  <inchikey>  (104) 
KJZJEBABOFASRX-UHFFFAOYSA-N

>  <submitter_email>  (104) 
None

>  <ref_mols>  (104) 
c0935a,c1132a

>  <submitter_name>  (104) 
None

$$$$
REUNPPWMXYHVPS-UHFFFAOYSA-N
     RDKit          3D

 17 18  0  0  0  0  0  0  0  0999 V2000
   13.8328    8.4466    9.0664 C   0  0  0  0  0  0  0  0  0  0  0  0
   14.5822    8.9218   10.2693 C   0  0  0  0  0  0  0  0  0  0  0  0
   15.3263   10.0962   10.1448 C   0  0  0  0  0  0  0  0  0  0  0  0
   16.1252   10.5933   11.2001 C   0  0  0  0  0  0  0  0  0  0  0  0
   17.3052   11.3281   10.8381 N   0  0  0  0  0  0  0  0  0  0  0  0
   18.0723   10.3908   10.0472 C   0  0  0  0  0  0  0  0  0  0  0  0
   18.1101   12.2563   11.5514 C   0  0  0  0  0  0  0  0  0  0  0  0
   17.4662   13.2736   12.2580 C   0  0  0  0  0  0  0  0  0  0  0  0
   18.2197   14.3131   12.7753 C   0  0  0  0  0  0  0  0  0  0  0  0
   19.5594   14.4158   12.6623 N   0  0  0  0  0  0  0  0  0  0  0  0
   20.1933   13.4051   12.0442 C   0  0  0  0  0  0  0  0  0  0  0  0
   19.5318   12.3202   11.4920 C   0  0  0  0  0  0  0  0  0  0  0  0
   20.2912   11.2890   11.0016 O   0  0  0  0  0  0  0  0  0  0  0  0
   15.9431   10.0652   12.4728 C   0  0  0  0  0  0  0  0  0  0  0  0
   15.1582    8.9176   12.6258 C   0  0  0  0  0  0  0  0  0  0  0  0
   14.5389    8.3206   11.5227 C   0  0  0  0  0  0  0  0  0  0  0  0
   13.8416    7.1709   11.7657 O   0  0  0  0  0  0  0  0  0  0  0  0
  1  2  1  0
  2  3  2  0
  3  4  1  0
  4  5  1  0
  5  6  1  0
  5  7  1  0
  7  8  2  0
  8  9  1  0
  9 10  2  0
 10 11  1  0
 11 12  2  0
 12 13  1  0
  4 14  2  0
 14 15  1  0
 15 16  2  0
 16 17  1  0
 16  2  1  0
 12  7  1  0
M  END
>  <original ID>  (105) 
REUNPPWMXYHVPS-UHFFFAOYSA-N

>  <generation_date>  (105) 
None

>  <alias>  (105) 
None

>  <original SMILES>  (105) 
Cc1cc(N(C)c2ccncc2O)ccc1O

>  <HIPPO ID>  (105) 
47110

>  <tags>  (105) 
[]

>  <ref_pdb>  (105) 
c0270a

>  <method>  (105) 
None

>  <ref_url>  (105) 
None

>  <inchikey>  (105) 
REUNPPWMXYHVPS-UHFFFAOYSA-N

>  <submitter_email>  (105) 
None

>  <ref_mols>  (105) 
c0935a,c1132a

>  <submitter_name>  (105) 
None

$$$$
VOZWYFLJBFWCGP-UHFFFAOYSA-N
     RDKit          3D

 17 18  0  0  0  0  0  0  0  0999 V2000
   13.8279    8.2804    8.9929 C   0  0  0  0  0  0  0  0  0  0  0  0
   14.7616    8.6510   10.0973 C   0  0  0  0  0  0  0  0  0  0  0  0
   15.7971    9.5492    9.8396 C   0  0  0  0  0  0  0  0  0  0  0  0
   16.5173   10.1514   10.8745 C   0  0  0  0  0  0  0  0  0  0  0  0
   17.6421   10.9083   10.5365 N   0  0  0  0  0  0  0  0  0  0  0  0
   18.3896   11.9134   11.1669 C   0  0  0  0  0  0  0  0  0  0  0  0
   17.8245   12.8594   12.0093 C   0  0  0  0  0  0  0  0  0  0  0  0
   18.6515   13.8564   12.5043 C   0  0  0  0  0  0  0  0  0  0  0  0
   19.9748   13.9595   12.2454 N   0  0  0  0  0  0  0  0  0  0  0  0
   20.5197   13.0045   11.4814 C   0  0  0  0  0  0  0  0  0  0  0  0
   19.7749   11.9826   10.9392 C   0  0  0  0  0  0  0  0  0  0  0  0
   20.3736   11.0238   10.1875 O   0  0  0  0  0  0  0  0  0  0  0  0
   16.0680    9.9652   12.1790 C   0  0  0  0  0  0  0  0  0  0  0  0
   15.1064    8.9862   12.4693 C   0  0  0  0  0  0  0  0  0  0  0  0
   14.6696    8.7895   13.8906 C   0  0  0  0  0  0  0  0  0  0  0  0
   14.5277    8.2744   11.4157 C   0  0  0  0  0  0  0  0  0  0  0  0
   13.6689    7.2521   11.7135 O   0  0  0  0  0  0  0  0  0  0  0  0
  1  2  1  0
  2  3  2  0
  3  4  1  0
  4  5  1  0
  5  6  1  0
  6  7  2  0
  7  8  1  0
  8  9  2  0
  9 10  1  0
 10 11  2  0
 11 12  1  0
  4 13  2  0
 13 14  1  0
 14 15  1  0
 14 16  2  0
 16 17  1  0
 16  2  1  0
 11  6  1  0
M  END
>  <original ID>  (106) 
VOZWYFLJBFWCGP-UHFFFAOYSA-N

>  <generation_date>  (106) 
None

>  <alias>  (106) 
None

>  <original SMILES>  (106) 
Cc1cc(Nc2ccncc2O)cc(C)c1O

>  <HIPPO ID>  (106) 
47116

>  <tags>  (106) 
[]

>  <ref_pdb>  (106) 
c0270a

>  <method>  (106) 
None

>  <ref_url>  (106) 
None

>  <inchikey>  (106) 
VOZWYFLJBFWCGP-UHFFFAOYSA-N

>  <submitter_email>  (106) 
None

>  <ref_mols>  (106) 
c0935a,c1132a

>  <submitter_name>  (106) 
None

$$$$
MYLVZCIGCUUWFN-UHFFFAOYSA-N
     RDKit          3D

 17 18  0  0  0  0  0  0  0  0999 V2000
   13.6365    7.0459   12.4259 O   0  0  0  0  0  0  0  0  0  0  0  0
   14.4859    8.0489   12.0583 C   0  0  0  0  0  0  0  0  0  0  0  0
   14.8141    8.1497   10.7359 C   0  0  0  0  0  0  0  0  0  0  0  0
   15.6552    9.1880   10.3690 C   0  0  0  0  0  0  0  0  0  0  0  0
   15.8900    9.3965    8.7204 Cl  0  0  0  0  0  0  0  0  0  0  0  0
   16.2697   10.0781   11.2741 C   0  0  0  0  0  0  0  0  0  0  0  0
   17.2827   10.9299   10.7916 N   0  0  0  0  0  0  0  0  0  0  0  0
   18.0927   11.9453   11.3250 C   0  0  0  0  0  0  0  0  0  0  0  0
   17.6169   12.9229   12.1829 C   0  0  0  0  0  0  0  0  0  0  0  0
   18.5033   13.9136   12.5853 C   0  0  0  0  0  0  0  0  0  0  0  0
   19.8056   13.9822   12.2243 N   0  0  0  0  0  0  0  0  0  0  0  0
   20.2688   13.0015   11.4416 C   0  0  0  0  0  0  0  0  0  0  0  0
   19.4597   11.9853   10.9847 C   0  0  0  0  0  0  0  0  0  0  0  0
   19.9834   10.9981   10.2156 O   0  0  0  0  0  0  0  0  0  0  0  0
   15.8264   10.0241   12.5879 C   0  0  0  0  0  0  0  0  0  0  0  0
   14.9297    9.0176   12.9601 C   0  0  0  0  0  0  0  0  0  0  0  0
   14.4384    8.9937   14.2049 F   0  0  0  0  0  0  0  0  0  0  0  0
  1  2  1  0
  2  3  2  0
  3  4  1  0
  4  5  1  0
  4  6  2  0
  6  7  1  0
  7  8  1  0
  8  9  2  0
  9 10  1  0
 10 11  2  0
 11 12  1  0
 12 13  2  0
 13 14  1  0
  6 15  1  0
 15 16  2  0
 16 17  1  0
 16  2  1  0
 13  8  1  0
M  END
>  <original ID>  (107) 
MYLVZCIGCUUWFN-UHFFFAOYSA-N

>  <generation_date>  (107) 
None

>  <alias>  (107) 
None

>  <original SMILES>  (107) 
Oc1cc(Cl)c(Nc2ccncc2O)cc1F

>  <HIPPO ID>  (107) 
47119

>  <tags>  (107) 
[]

>  <ref_pdb>  (107) 
c0270a

>  <method>  (107) 
None

>  <ref_url>  (107) 
None

>  <inchikey>  (107) 
MYLVZCIGCUUWFN-UHFFFAOYSA-N

>  <submitter_email>  (107) 
None

>  <ref_mols>  (107) 
c0935a,c1132a

>  <submitter_name>  (107) 
None

$$$$
MBKCPDPMIDBXSI-UHFFFAOYSA-N
     RDKit          3D

 17 18  0  0  0  0  0  0  0  0999 V2000
   13.7966    8.3101    8.9296 C   0  0  0  0  0  0  0  0  0  0  0  0
   14.7093    8.6244   10.0648 C   0  0  0  0  0  0  0  0  0  0  0  0
   15.6992    9.5949    9.8962 C   0  0  0  0  0  0  0  0  0  0  0  0
   16.3597   10.2034   10.9820 C   0  0  0  0  0  0  0  0  0  0  0  0
   17.4383   11.0309   10.6272 N   0  0  0  0  0  0  0  0  0  0  0  0
   18.2583   12.0057   11.2187 C   0  0  0  0  0  0  0  0  0  0  0  0
   17.7742   13.0337   12.0109 C   0  0  0  0  0  0  0  0  0  0  0  0
   18.6795   13.9772   12.4767 C   0  0  0  0  0  0  0  0  0  0  0  0
   20.0060   13.9674   12.2153 N   0  0  0  0  0  0  0  0  0  0  0  0
   20.4690   12.9553   11.4745 C   0  0  0  0  0  0  0  0  0  0  0  0
   19.6430   11.9780   10.9676 C   0  0  0  0  0  0  0  0  0  0  0  0
   20.1611   10.9762   10.2129 O   0  0  0  0  0  0  0  0  0  0  0  0
   15.8705    9.9219   12.2627 C   0  0  0  0  0  0  0  0  0  0  0  0
   16.1553   10.7214   13.4909 C   0  0  0  0  0  0  0  0  0  0  0  0
   15.0054    8.8235   12.4296 C   0  0  0  0  0  0  0  0  0  0  0  0
   14.4824    8.1453   11.3402 C   0  0  0  0  0  0  0  0  0  0  0  0
   13.6453    7.1002   11.5982 O   0  0  0  0  0  0  0  0  0  0  0  0
  1  2  1  0
  2  3  2  0
  3  4  1  0
  4  5  1  0
  5  6  1  0
  6  7  2  0
  7  8  1  0
  8  9  2  0
  9 10  1  0
 10 11  2  0
 11 12  1  0
  4 13  2  0
 13 14  1  0
 13 15  1  0
 15 16  2  0
 16 17  1  0
 16  2  1  0
 11  6  1  0
M  END
>  <original ID>  (108) 
MBKCPDPMIDBXSI-UHFFFAOYSA-N

>  <generation_date>  (108) 
None

>  <alias>  (108) 
None

>  <original SMILES>  (108) 
Cc1cc(Nc2ccncc2O)c(C)cc1O

>  <HIPPO ID>  (108) 
47124

>  <tags>  (108) 
[]

>  <ref_pdb>  (108) 
c0270a

>  <method>  (108) 
None

>  <ref_url>  (108) 
None

>  <inchikey>  (108) 
MBKCPDPMIDBXSI-UHFFFAOYSA-N

>  <submitter_email>  (108) 
None

>  <ref_mols>  (108) 
c0935a,c1132a

>  <submitter_name>  (108) 
None

$$$$
HPWYCPKTPMKCJF-UHFFFAOYSA-N
     RDKit          3D

 17 18  0  0  0  0  0  0  0  0999 V2000
   13.1429    6.4255   12.2472 C   0  0  0  0  0  0  0  0  0  0  0  0
   13.4928    7.0616   11.0319 O   0  0  0  0  0  0  0  0  0  0  0  0
   14.4205    8.0606   11.0701 C   0  0  0  0  0  0  0  0  0  0  0  0
   14.8776    8.4580    9.8305 C   0  0  0  0  0  0  0  0  0  0  0  0
   15.8655    9.4304    9.7331 C   0  0  0  0  0  0  0  0  0  0  0  0
   16.3932   10.0912   10.8617 C   0  0  0  0  0  0  0  0  0  0  0  0
   17.5043   10.9123   10.5881 N   0  0  0  0  0  0  0  0  0  0  0  0
   18.2674   11.9256   11.1905 C   0  0  0  0  0  0  0  0  0  0  0  0
   17.7381   12.9428   11.9653 C   0  0  0  0  0  0  0  0  0  0  0  0
   18.6033   13.9165   12.4467 C   0  0  0  0  0  0  0  0  0  0  0  0
   19.9335   13.9527   12.2099 N   0  0  0  0  0  0  0  0  0  0  0  0
   20.4424   12.9541   11.4821 C   0  0  0  0  0  0  0  0  0  0  0  0
   19.6582   11.9475   10.9647 C   0  0  0  0  0  0  0  0  0  0  0  0
   20.2253   10.9653   10.2179 O   0  0  0  0  0  0  0  0  0  0  0  0
   15.7766    9.8241   12.0941 C   0  0  0  0  0  0  0  0  0  0  0  0
   16.0529   10.6975   13.6250 S   0  0  0  0  0  0  0  0  0  0  0  0
   14.8561    8.7555   12.1957 C   0  0  0  0  0  0  0  0  0  0  0  0
  1  2  1  0
  2  3  1  0
  3  4  2  0
  4  5  1  0
  5  6  2  0
  6  7  1  0
  7  8  1  0
  8  9  2  0
  9 10  1  0
 10 11  2  0
 11 12  1  0
 12 13  2  0
 13 14  1  0
  6 15  1  0
 15 16  1  0
 15 17  2  0
 17  3  1  0
 13  8  1  0
M  END
>  <original ID>  (109) 
HPWYCPKTPMKCJF-UHFFFAOYSA-N

>  <generation_date>  (109) 
None

>  <alias>  (109) 
None

>  <original SMILES>  (109) 
COc1ccc(Nc2ccncc2O)c(S)c1

>  <HIPPO ID>  (109) 
47140

>  <tags>  (109) 
[]

>  <ref_pdb>  (109) 
c0270a

>  <method>  (109) 
None

>  <ref_url>  (109) 
None

>  <inchikey>  (109) 
HPWYCPKTPMKCJF-UHFFFAOYSA-N

>  <submitter_email>  (109) 
None

>  <ref_mols>  (109) 
c0935a,c1132a

>  <submitter_name>  (109) 
None

$$$$
YWVOBRGJYRKUJJ-UHFFFAOYSA-N
     RDKit          3D

 18 19  0  0  0  0  0  0  0  0999 V2000
   22.6685   13.2203   10.2589 C   0  0  0  0  0  0  0  0  0  0  0  0
   21.5269   13.4797   11.0932 O   0  0  0  0  0  0  0  0  0  0  0  0
   20.5273   12.5619   10.9414 C   0  0  0  0  0  0  0  0  0  0  0  0
   20.8869   11.4934   10.2417 N   0  0  0  0  0  0  0  0  0  0  0  0
   19.9391   10.6434    9.9163 C   0  0  0  0  0  0  0  0  0  0  0  0
   18.6441   10.7217   10.3413 C   0  0  0  0  0  0  0  0  0  0  0  0
   18.2536   11.7691   11.1405 C   0  0  0  0  0  0  0  0  0  0  0  0
   16.8835   11.8511   11.5226 N   0  0  0  0  0  0  0  0  0  0  0  0
   15.9775   10.7557   11.4407 C   0  0  0  0  0  0  0  0  0  0  0  0
   15.5548   10.2438   10.1976 C   0  0  0  0  0  0  0  0  0  0  0  0
   14.8796    9.0259   10.1010 C   0  0  0  0  0  0  0  0  0  0  0  0
   14.6092    8.3160   11.2586 C   0  0  0  0  0  0  0  0  0  0  0  0
   13.9036    7.1549   11.1449 O   0  0  0  0  0  0  0  0  0  0  0  0
   14.9907    8.8099   12.5047 C   0  0  0  0  0  0  0  0  0  0  0  0
   15.6670   10.0305   12.5940 C   0  0  0  0  0  0  0  0  0  0  0  0
   19.2233   12.7564   11.4283 C   0  0  0  0  0  0  0  0  0  0  0  0
   18.7726   13.8100   12.1676 O   0  0  0  0  0  0  0  0  0  0  0  0
   19.6348   14.9318   12.2965 C   0  0  0  0  0  0  0  0  0  0  0  0
  1  2  1  0
  2  3  1  0
  3  4  2  0
  4  5  1  0
  5  6  2  0
  6  7  1  0
  7  8  1  0
  8  9  1  0
  9 10  2  0
 10 11  1  0
 11 12  2  0
 12 13  1  0
 12 14  1  0
 14 15  2  0
  7 16  2  0
 16 17  1  0
 17 18  1  0
 16  3  1  0
 15  9  1  0
M  END
>  <original ID>  (110) 
YWVOBRGJYRKUJJ-UHFFFAOYSA-N

>  <generation_date>  (110) 
None

>  <alias>  (110) 
None

>  <original SMILES>  (110) 
COc1nccc(Nc2ccc(O)cc2)c1OC

>  <HIPPO ID>  (110) 
47300

>  <tags>  (110) 
[]

>  <ref_pdb>  (110) 
c0270a

>  <method>  (110) 
None

>  <ref_url>  (110) 
None

>  <inchikey>  (110) 
YWVOBRGJYRKUJJ-UHFFFAOYSA-N

>  <submitter_email>  (110) 
None

>  <ref_mols>  (110) 
c0935a,c1132a

>  <submitter_name>  (110) 
None

$$$$
UGHAATJVZQPLSQ-UHFFFAOYSA-N
     RDKit          3D

 18 19  0  0  0  0  0  0  0  0999 V2000
   21.4785   11.4832   10.5674 C   0  0  0  0  0  0  0  0  0  0  0  0
   20.0606   11.4045   10.4403 O   0  0  0  0  0  0  0  0  0  0  0  0
   19.3303   12.2784   11.2012 C   0  0  0  0  0  0  0  0  0  0  0  0
   19.8328   13.3814   11.8745 C   0  0  0  0  0  0  0  0  0  0  0  0
   19.0761   14.2154   12.6251 N   0  0  0  0  0  0  0  0  0  0  0  0
   17.7626   13.9291   12.7482 C   0  0  0  0  0  0  0  0  0  0  0  0
   16.9425   14.8394   13.6091 C   0  0  0  0  0  0  0  0  0  0  0  0
   17.1728   12.8382   12.1221 C   0  0  0  0  0  0  0  0  0  0  0  0
   17.9511   12.0158   11.3056 C   0  0  0  0  0  0  0  0  0  0  0  0
   17.3946   10.9352   10.5938 N   0  0  0  0  0  0  0  0  0  0  0  0
   16.3536   10.0327   10.8541 C   0  0  0  0  0  0  0  0  0  0  0  0
   15.8003    9.3358    9.7697 C   0  0  0  0  0  0  0  0  0  0  0  0
   14.8490    8.3355    9.9633 C   0  0  0  0  0  0  0  0  0  0  0  0
   14.4647    8.0026   11.2491 C   0  0  0  0  0  0  0  0  0  0  0  0
   13.5815    6.9757   11.4048 O   0  0  0  0  0  0  0  0  0  0  0  0
   14.9329    8.7269   12.3366 C   0  0  0  0  0  0  0  0  0  0  0  0
   15.8372    9.7631   12.1258 C   0  0  0  0  0  0  0  0  0  0  0  0
   16.2806   10.4204   13.2074 F   0  0  0  0  0  0  0  0  0  0  0  0
  1  2  1  0
  2  3  1  0
  3  4  2  0
  4  5  1  0
  5  6  2  0
  6  7  1  0
  6  8  1  0
  8  9  2  0
  9 10  1  0
 10 11  1  0
 11 12  2  0
 12 13  1  0
 13 14  2  0
 14 15  1  0
 14 16  1  0
 16 17  2  0
 17 18  1  0
  9  3  1  0
 17 11  1  0
M  END
>  <original ID>  (111) 
UGHAATJVZQPLSQ-UHFFFAOYSA-N

>  <generation_date>  (111) 
None

>  <alias>  (111) 
None

>  <original SMILES>  (111) 
COc1cnc(C)cc1Nc1ccc(O)cc1F

>  <HIPPO ID>  (111) 
47317

>  <tags>  (111) 
[]

>  <ref_pdb>  (111) 
c0270a

>  <method>  (111) 
None

>  <ref_url>  (111) 
None

>  <inchikey>  (111) 
UGHAATJVZQPLSQ-UHFFFAOYSA-N

>  <submitter_email>  (111) 
None

>  <ref_mols>  (111) 
c0935a,c1132a

>  <submitter_name>  (111) 
None

$$$$
IMGPVNTVJNQCEI-UHFFFAOYSA-N
     RDKit          3D

 18 19  0  0  0  0  0  0  0  0999 V2000
   21.4184   11.4405   10.5914 C   0  0  0  0  0  0  0  0  0  0  0  0
   19.9949   11.3690   10.5532 O   0  0  0  0  0  0  0  0  0  0  0  0
   19.3006   12.2768   11.3141 C   0  0  0  0  0  0  0  0  0  0  0  0
   17.9029   12.0881   11.3553 C   0  0  0  0  0  0  0  0  0  0  0  0
   17.3340   11.0138   10.6452 N   0  0  0  0  0  0  0  0  0  0  0  0
   16.2861   10.1001   10.8553 C   0  0  0  0  0  0  0  0  0  0  0  0
   15.7745    9.4949    9.6910 C   0  0  0  0  0  0  0  0  0  0  0  0
   14.8279    8.4794    9.7376 C   0  0  0  0  0  0  0  0  0  0  0  0
   14.4215    8.0030   10.9641 C   0  0  0  0  0  0  0  0  0  0  0  0
   13.5573    6.9543   11.0531 O   0  0  0  0  0  0  0  0  0  0  0  0
   14.8429    8.6219   12.1316 C   0  0  0  0  0  0  0  0  0  0  0  0
   15.7176    9.7138   12.0785 C   0  0  0  0  0  0  0  0  0  0  0  0
   16.0876   10.4325   13.6017 Cl  0  0  0  0  0  0  0  0  0  0  0  0
   17.1228   12.9742   12.0973 C   0  0  0  0  0  0  0  0  0  0  0  0
   17.7450   14.0136   12.7622 C   0  0  0  0  0  0  0  0  0  0  0  0
   19.0752   14.2120   12.7548 N   0  0  0  0  0  0  0  0  0  0  0  0
   19.8260   13.3298   12.0563 C   0  0  0  0  0  0  0  0  0  0  0  0
   21.1524   13.5018   12.1389 F   0  0  0  0  0  0  0  0  0  0  0  0
  1  2  1  0
  2  3  1  0
  3  4  2  0
  4  5  1  0
  5  6  1  0
  6  7  2  0
  7  8  1  0
  8  9  2  0
  9 10  1  0
  9 11  1  0
 11 12  2  0
 12 13  1  0
  4 14  1  0
 14 15  2  0
 15 16  1  0
 16 17  2  0
 17 18  1  0
 17  3  1  0
 12  6  1  0
M  END
>  <original ID>  (112) 
IMGPVNTVJNQCEI-UHFFFAOYSA-N

>  <generation_date>  (112) 
None

>  <alias>  (112) 
None

>  <original SMILES>  (112) 
COc1c(Nc2ccc(O)cc2Cl)ccnc1F

>  <HIPPO ID>  (112) 
47337

>  <tags>  (112) 
[]

>  <ref_pdb>  (112) 
c0270a

>  <method>  (112) 
None

>  <ref_url>  (112) 
None

>  <inchikey>  (112) 
IMGPVNTVJNQCEI-UHFFFAOYSA-N

>  <submitter_email>  (112) 
None

>  <ref_mols>  (112) 
c0935a,c1132a

>  <submitter_name>  (112) 
None

$$$$
XFJXOGJEEFGLSP-UHFFFAOYSA-N
     RDKit          3D

 18 19  0  0  0  0  0  0  0  0999 V2000
   21.3826   11.5887   10.6364 C   0  0  0  0  0  0  0  0  0  0  0  0
   19.9693   11.5169   10.4577 O   0  0  0  0  0  0  0  0  0  0  0  0
   19.2056   12.3564   11.2287 C   0  0  0  0  0  0  0  0  0  0  0  0
   17.8436   12.0140   11.3385 C   0  0  0  0  0  0  0  0  0  0  0  0
   17.3468   10.9068   10.6229 N   0  0  0  0  0  0  0  0  0  0  0  0
   16.3162    9.9879   10.8630 C   0  0  0  0  0  0  0  0  0  0  0  0
   15.7631    9.3108    9.7675 C   0  0  0  0  0  0  0  0  0  0  0  0
   14.8119    8.3077    9.9474 C   0  0  0  0  0  0  0  0  0  0  0  0
   14.4322    7.9501   11.2286 C   0  0  0  0  0  0  0  0  0  0  0  0
   13.5421    6.9271   11.3683 O   0  0  0  0  0  0  0  0  0  0  0  0
   14.9082    8.6489   12.3287 C   0  0  0  0  0  0  0  0  0  0  0  0
   15.8092    9.6894   12.1326 C   0  0  0  0  0  0  0  0  0  0  0  0
   16.2586   10.3283   13.2231 F   0  0  0  0  0  0  0  0  0  0  0  0
   17.0178   12.7873   12.1573 C   0  0  0  0  0  0  0  0  0  0  0  0
   17.5485   13.8989   12.7830 C   0  0  0  0  0  0  0  0  0  0  0  0
   18.8296   14.2828   12.6542 N   0  0  0  0  0  0  0  0  0  0  0  0
   19.6293   13.5057   11.8889 C   0  0  0  0  0  0  0  0  0  0  0  0
   20.8809   13.9529   11.7330 F   0  0  0  0  0  0  0  0  0  0  0  0
  1  2  1  0
  2  3  1  0
  3  4  2  0
  4  5  1  0
  5  6  1  0
  6  7  2  0
  7  8  1  0
  8  9  2  0
  9 10  1  0
  9 11  1  0
 11 12  2  0
 12 13  1  0
  4 14  1  0
 14 15  2  0
 15 16  1  0
 16 17  2  0
 17 18  1  0
 17  3  1  0
 12  6  1  0
M  END
>  <original ID>  (113) 
XFJXOGJEEFGLSP-UHFFFAOYSA-N

>  <generation_date>  (113) 
None

>  <alias>  (113) 
None

>  <original SMILES>  (113) 
COc1c(Nc2ccc(O)cc2F)ccnc1F

>  <HIPPO ID>  (113) 
47349

>  <tags>  (113) 
[]

>  <ref_pdb>  (113) 
c0270a

>  <method>  (113) 
None

>  <ref_url>  (113) 
None

>  <inchikey>  (113) 
XFJXOGJEEFGLSP-UHFFFAOYSA-N

>  <submitter_email>  (113) 
None

>  <ref_mols>  (113) 
c0935a,c1132a

>  <submitter_name>  (113) 
None

$$$$
VWWYUBSZLXIUPW-UHFFFAOYSA-N
     RDKit          3D

 18 19  0  0  0  0  0  0  0  0999 V2000
   21.4386   11.4534   10.5872 C   0  0  0  0  0  0  0  0  0  0  0  0
   20.0173   11.3826   10.4961 O   0  0  0  0  0  0  0  0  0  0  0  0
   19.3102   12.2929   11.2376 C   0  0  0  0  0  0  0  0  0  0  0  0
   19.8442   13.3900   11.8967 C   0  0  0  0  0  0  0  0  0  0  0  0
   19.1097   14.2632   12.6240 N   0  0  0  0  0  0  0  0  0  0  0  0
   17.7820   14.0400   12.7159 C   0  0  0  0  0  0  0  0  0  0  0  0
   16.9864   14.9852   13.5617 C   0  0  0  0  0  0  0  0  0  0  0  0
   17.1588   12.9697   12.0871 C   0  0  0  0  0  0  0  0  0  0  0  0
   17.9209   12.0774   11.3336 C   0  0  0  0  0  0  0  0  0  0  0  0
   17.3465   10.9755   10.6707 N   0  0  0  0  0  0  0  0  0  0  0  0
   16.3016   10.0678   10.9213 C   0  0  0  0  0  0  0  0  0  0  0  0
   15.7923    9.3959    9.7909 C   0  0  0  0  0  0  0  0  0  0  0  0
   14.8492    8.3767    9.8991 C   0  0  0  0  0  0  0  0  0  0  0  0
   14.4317    7.9761   11.1489 C   0  0  0  0  0  0  0  0  0  0  0  0
   13.5547    6.9370   11.2325 O   0  0  0  0  0  0  0  0  0  0  0  0
   14.8526    8.6598   12.2798 C   0  0  0  0  0  0  0  0  0  0  0  0
   15.7342    9.7422   12.1643 C   0  0  0  0  0  0  0  0  0  0  0  0
   16.1112   10.5149   13.6601 Cl  0  0  0  0  0  0  0  0  0  0  0  0
  1  2  1  0
  2  3  1  0
  3  4  2  0
  4  5  1  0
  5  6  2  0
  6  7  1  0
  6  8  1  0
  8  9  2  0
  9 10  1  0
 10 11  1  0
 11 12  2  0
 12 13  1  0
 13 14  2  0
 14 15  1  0
 14 16  1  0
 16 17  2  0
 17 18  1  0
  9  3  1  0
 17 11  1  0
M  END
>  <original ID>  (114) 
VWWYUBSZLXIUPW-UHFFFAOYSA-N

>  <generation_date>  (114) 
None

>  <alias>  (114) 
None

>  <original SMILES>  (114) 
COc1cnc(C)cc1Nc1ccc(O)cc1Cl

>  <HIPPO ID>  (114) 
47353

>  <tags>  (114) 
[]

>  <ref_pdb>  (114) 
c0270a

>  <method>  (114) 
None

>  <ref_url>  (114) 
None

>  <inchikey>  (114) 
VWWYUBSZLXIUPW-UHFFFAOYSA-N

>  <submitter_email>  (114) 
None

>  <ref_mols>  (114) 
c0935a,c1132a

>  <submitter_name>  (114) 
None

$$$$
MWCVUZKAWWUXDO-UHFFFAOYSA-N
     RDKit          3D

 18 19  0  0  0  0  0  0  0  0999 V2000
   21.3373   11.4195   10.7643 C   0  0  0  0  0  0  0  0  0  0  0  0
   19.9618   11.6260   10.4761 O   0  0  0  0  0  0  0  0  0  0  0  0
   19.2060   12.4248   11.2927 C   0  0  0  0  0  0  0  0  0  0  0  0
   19.5910   13.5620   12.0084 C   0  0  0  0  0  0  0  0  0  0  0  0
   21.3204   14.3156   12.0862 Br  0  0  0  0  0  0  0  0  0  0  0  0
   18.6428   14.2857   12.7344 C   0  0  0  0  0  0  0  0  0  0  0  0
   17.3344   13.8680   12.7139 C   0  0  0  0  0  0  0  0  0  0  0  0
   16.9239   12.7862   12.0371 N   0  0  0  0  0  0  0  0  0  0  0  0
   17.8406   12.0580   11.3607 C   0  0  0  0  0  0  0  0  0  0  0  0
   17.4232   10.8803   10.7056 N   0  0  0  0  0  0  0  0  0  0  0  0
   16.3088   10.0398   10.9022 C   0  0  0  0  0  0  0  0  0  0  0  0
   15.8134    9.3697    9.7669 C   0  0  0  0  0  0  0  0  0  0  0  0
   14.8488    8.3693    9.8670 C   0  0  0  0  0  0  0  0  0  0  0  0
   14.4141    7.9708   11.1120 C   0  0  0  0  0  0  0  0  0  0  0  0
   13.5287    6.9377   11.1857 O   0  0  0  0  0  0  0  0  0  0  0  0
   14.8330    8.6448   12.2484 C   0  0  0  0  0  0  0  0  0  0  0  0
   15.7290    9.7149   12.1433 C   0  0  0  0  0  0  0  0  0  0  0  0
   16.1130   10.4691   13.6490 Cl  0  0  0  0  0  0  0  0  0  0  0  0
  1  2  1  0
  2  3  1  0
  3  4  2  0
  4  5  1  0
  4  6  1  0
  6  7  2  0
  7  8  1  0
  8  9  2  0
  9 10  1  0
 10 11  1  0
 11 12  2  0
 12 13  1  0
 13 14  2  0
 14 15  1  0
 14 16  1  0
 16 17  2  0
 17 18  1  0
  9  3  1  0
 17 11  1  0
M  END
>  <original ID>  (115) 
MWCVUZKAWWUXDO-UHFFFAOYSA-N

>  <generation_date>  (115) 
None

>  <alias>  (115) 
None

>  <original SMILES>  (115) 
COc1c(Br)ccnc1Nc1ccc(O)cc1Cl

>  <HIPPO ID>  (115) 
47433

>  <tags>  (115) 
[]

>  <ref_pdb>  (115) 
c0270a

>  <method>  (115) 
None

>  <ref_url>  (115) 
None

>  <inchikey>  (115) 
MWCVUZKAWWUXDO-UHFFFAOYSA-N

>  <submitter_email>  (115) 
None

>  <ref_mols>  (115) 
c0935a,c1132a

>  <submitter_name>  (115) 
None

$$$$
WZFGGDMKBNAWSK-UHFFFAOYSA-N
     RDKit          3D

 18 19  0  0  0  0  0  0  0  0999 V2000
   21.3842   11.3215   10.6606 C   0  0  0  0  0  0  0  0  0  0  0  0
   20.0115   11.5037   10.3142 O   0  0  0  0  0  0  0  0  0  0  0  0
   19.2915   12.3576   11.1081 C   0  0  0  0  0  0  0  0  0  0  0  0
   17.9451   11.9934   11.3250 C   0  0  0  0  0  0  0  0  0  0  0  0
   17.4269   10.8679   10.6524 N   0  0  0  0  0  0  0  0  0  0  0  0
   16.3599    9.9893   10.8850 C   0  0  0  0  0  0  0  0  0  0  0  0
   15.8047    9.3163    9.7868 C   0  0  0  0  0  0  0  0  0  0  0  0
   14.8394    8.3259    9.9611 C   0  0  0  0  0  0  0  0  0  0  0  0
   14.4455    7.9775   11.2401 C   0  0  0  0  0  0  0  0  0  0  0  0
   13.5517    6.9573   11.3764 O   0  0  0  0  0  0  0  0  0  0  0  0
   14.9160    8.6795   12.3409 C   0  0  0  0  0  0  0  0  0  0  0  0
   15.8333    9.7071   12.1498 C   0  0  0  0  0  0  0  0  0  0  0  0
   16.2850   10.3398   13.2427 F   0  0  0  0  0  0  0  0  0  0  0  0
   17.1668   12.7725   12.1818 C   0  0  0  0  0  0  0  0  0  0  0  0
   17.7178   13.9180   12.7252 C   0  0  0  0  0  0  0  0  0  0  0  0
   18.9615   14.3493   12.4479 N   0  0  0  0  0  0  0  0  0  0  0  0
   19.7151   13.5718   11.6365 C   0  0  0  0  0  0  0  0  0  0  0  0
   21.1327   14.3915   11.1082 Cl  0  0  0  0  0  0  0  0  0  0  0  0
  1  2  1  0
  2  3  1  0
  3  4  2  0
  4  5  1  0
  5  6  1  0
  6  7  2  0
  7  8  1  0
  8  9  2  0
  9 10  1  0
  9 11  1  0
 11 12  2  0
 12 13  1  0
  4 14  1  0
 14 15  2  0
 15 16  1  0
 16 17  2  0
 17 18  1  0
 17  3  1  0
 12  6  1  0
M  END
>  <original ID>  (116) 
WZFGGDMKBNAWSK-UHFFFAOYSA-N

>  <generation_date>  (116) 
None

>  <alias>  (116) 
None

>  <original SMILES>  (116) 
COc1c(Nc2ccc(O)cc2F)ccnc1Cl

>  <HIPPO ID>  (116) 
47482

>  <tags>  (116) 
[]

>  <ref_pdb>  (116) 
c0270a

>  <method>  (116) 
None

>  <ref_url>  (116) 
None

>  <inchikey>  (116) 
WZFGGDMKBNAWSK-UHFFFAOYSA-N

>  <submitter_email>  (116) 
None

>  <ref_mols>  (116) 
c0935a,c1132a

>  <submitter_name>  (116) 
None

$$$$
OZRGVYLXKNBQFI-UHFFFAOYSA-N
     RDKit          3D

 18 19  0  0  0  0  0  0  0  0999 V2000
   13.8054    8.2070    9.0251 C   0  0  0  0  0  0  0  0  0  0  0  0
   14.7420    8.6187   10.1104 C   0  0  0  0  0  0  0  0  0  0  0  0
   15.7733    9.5143    9.8395 C   0  0  0  0  0  0  0  0  0  0  0  0
   16.5049   10.0996   10.8715 C   0  0  0  0  0  0  0  0  0  0  0  0
   17.6399   10.8432   10.5386 N   0  0  0  0  0  0  0  0  0  0  0  0
   18.3543   11.8815   11.1565 C   0  0  0  0  0  0  0  0  0  0  0  0
   19.7409   11.9820   10.9330 C   0  0  0  0  0  0  0  0  0  0  0  0
   20.3645   11.0292   10.1923 O   0  0  0  0  0  0  0  0  0  0  0  0
   20.4694   13.0226   11.4697 C   0  0  0  0  0  0  0  0  0  0  0  0
   19.9101   13.9717   12.2323 N   0  0  0  0  0  0  0  0  0  0  0  0
   18.5859   13.8406   12.4927 C   0  0  0  0  0  0  0  0  0  0  0  0
   17.7817   12.8255   11.9987 C   0  0  0  0  0  0  0  0  0  0  0  0
   16.4705   12.8129   12.2857 F   0  0  0  0  0  0  0  0  0  0  0  0
   16.0646    9.9043   12.1808 C   0  0  0  0  0  0  0  0  0  0  0  0
   15.0829    8.9482   12.4822 C   0  0  0  0  0  0  0  0  0  0  0  0
   14.7166    8.7256   13.9181 C   0  0  0  0  0  0  0  0  0  0  0  0
   14.5104    8.2356   11.4276 C   0  0  0  0  0  0  0  0  0  0  0  0
   13.6455    7.1950   11.6286 O   0  0  0  0  0  0  0  0  0  0  0  0
  1  2  1  0
  2  3  2  0
  3  4  1  0
  4  5  1  0
  5  6  1  0
  6  7  2  0
  7  8  1  0
  7  9  1  0
  9 10  2  0
 10 11  1  0
 11 12  2  0
 12 13  1  0
  4 14  2  0
 14 15  1  0
 15 16  1  0
 15 17  2  0
 17 18  1  0
 17  2  1  0
 12  6  1  0
M  END
>  <original ID>  (117) 
OZRGVYLXKNBQFI-UHFFFAOYSA-N

>  <generation_date>  (117) 
None

>  <alias>  (117) 
None

>  <original SMILES>  (117) 
Cc1cc(Nc2c(O)cncc2F)cc(C)c1O

>  <HIPPO ID>  (117) 
47583

>  <tags>  (117) 
[]

>  <ref_pdb>  (117) 
c0270a

>  <method>  (117) 
None

>  <ref_url>  (117) 
None

>  <inchikey>  (117) 
OZRGVYLXKNBQFI-UHFFFAOYSA-N

>  <submitter_email>  (117) 
None

>  <ref_mols>  (117) 
c0935a,c1132a

>  <submitter_name>  (117) 
None

$$$$
BRERXWXCFNAXCX-UHFFFAOYSA-N
     RDKit          3D

 18 19  0  0  0  0  0  0  0  0999 V2000
   13.5667    7.0244   12.3755 O   0  0  0  0  0  0  0  0  0  0  0  0
   14.4421    7.9988   11.9933 C   0  0  0  0  0  0  0  0  0  0  0  0
   14.7847    8.1216   10.6736 C   0  0  0  0  0  0  0  0  0  0  0  0
   15.6535    9.1466   10.3338 C   0  0  0  0  0  0  0  0  0  0  0  0
   15.8965    9.3892    8.6939 Cl  0  0  0  0  0  0  0  0  0  0  0  0
   16.2841   10.0028   11.2520 C   0  0  0  0  0  0  0  0  0  0  0  0
   17.3345   10.8198   10.7923 N   0  0  0  0  0  0  0  0  0  0  0  0
   18.0839   11.8907   11.3056 C   0  0  0  0  0  0  0  0  0  0  0  0
   19.4552   11.9859   10.9879 C   0  0  0  0  0  0  0  0  0  0  0  0
   20.0359   11.0110   10.2418 O   0  0  0  0  0  0  0  0  0  0  0  0
   20.2180   13.0417   11.4434 C   0  0  0  0  0  0  0  0  0  0  0  0
   19.7069   14.0155   12.2073 N   0  0  0  0  0  0  0  0  0  0  0  0
   18.3984   13.8990   12.5472 C   0  0  0  0  0  0  0  0  0  0  0  0
   17.5642   12.8699   12.1362 C   0  0  0  0  0  0  0  0  0  0  0  0
   16.2663   12.8773   12.4736 F   0  0  0  0  0  0  0  0  0  0  0  0
   15.8277    9.9353   12.5597 C   0  0  0  0  0  0  0  0  0  0  0  0
   14.9046    8.9436   12.9143 C   0  0  0  0  0  0  0  0  0  0  0  0
   14.4146    8.9341   14.1598 F   0  0  0  0  0  0  0  0  0  0  0  0
  1  2  1  0
  2  3  2  0
  3  4  1  0
  4  5  1  0
  4  6  2  0
  6  7  1  0
  7  8  1  0
  8  9  2  0
  9 10  1  0
  9 11  1  0
 11 12  2  0
 12 13  1  0
 13 14  2  0
 14 15  1  0
  6 16  1  0
 16 17  2  0
 17 18  1  0
 17  2  1  0
 14  8  1  0
M  END
>  <original ID>  (118) 
BRERXWXCFNAXCX-UHFFFAOYSA-N

>  <generation_date>  (118) 
None

>  <alias>  (118) 
None

>  <original SMILES>  (118) 
Oc1cc(Cl)c(Nc2c(O)cncc2F)cc1F

>  <HIPPO ID>  (118) 
47586

>  <tags>  (118) 
[]

>  <ref_pdb>  (118) 
c0270a

>  <method>  (118) 
None

>  <ref_url>  (118) 
None

>  <inchikey>  (118) 
BRERXWXCFNAXCX-UHFFFAOYSA-N

>  <submitter_email>  (118) 
None

>  <ref_mols>  (118) 
c0935a,c1132a

>  <submitter_name>  (118) 
None

$$$$
LBTGCVLGDBDEJI-UHFFFAOYSA-N
     RDKit          3D

 18 19  0  0  0  0  0  0  0  0999 V2000
   13.1959    6.4675   12.2064 C   0  0  0  0  0  0  0  0  0  0  0  0
   13.5425    7.1220   10.9998 O   0  0  0  0  0  0  0  0  0  0  0  0
   14.4632    8.1277   11.0557 C   0  0  0  0  0  0  0  0  0  0  0  0
   14.9277    8.5345    9.8232 C   0  0  0  0  0  0  0  0  0  0  0  0
   15.9116    9.5127    9.7410 C   0  0  0  0  0  0  0  0  0  0  0  0
   16.4358   10.1717   10.8750 C   0  0  0  0  0  0  0  0  0  0  0  0
   17.5478   10.9967   10.6032 N   0  0  0  0  0  0  0  0  0  0  0  0
   18.3766   11.9655   11.2056 C   0  0  0  0  0  0  0  0  0  0  0  0
   19.7609   11.9102   10.9253 C   0  0  0  0  0  0  0  0  0  0  0  0
   20.2308   10.9050   10.1411 O   0  0  0  0  0  0  0  0  0  0  0  0
   20.6425   12.8572   11.4103 C   0  0  0  0  0  0  0  0  0  0  0  0
   20.2423   13.8823   12.1678 N   0  0  0  0  0  0  0  0  0  0  0  0
   18.9217   13.9282   12.4607 C   0  0  0  0  0  0  0  0  0  0  0  0
   17.9723   13.0159   12.0132 C   0  0  0  0  0  0  0  0  0  0  0  0
   16.6868   13.2555   12.2913 F   0  0  0  0  0  0  0  0  0  0  0  0
   15.8123    9.8927   12.0991 C   0  0  0  0  0  0  0  0  0  0  0  0
   16.0960   10.7476   13.6357 S   0  0  0  0  0  0  0  0  0  0  0  0
   14.8909    8.8194   12.1876 C   0  0  0  0  0  0  0  0  0  0  0  0
  1  2  1  0
  2  3  1  0
  3  4  2  0
  4  5  1  0
  5  6  2  0
  6  7  1  0
  7  8  1  0
  8  9  2  0
  9 10  1  0
  9 11  1  0
 11 12  2  0
 12 13  1  0
 13 14  2  0
 14 15  1  0
  6 16  1  0
 16 17  1  0
 16 18  2  0
 18  3  1  0
 14  8  1  0
M  END
>  <original ID>  (119) 
LBTGCVLGDBDEJI-UHFFFAOYSA-N

>  <generation_date>  (119) 
None

>  <alias>  (119) 
None

>  <original SMILES>  (119) 
COc1ccc(Nc2c(O)cncc2F)c(S)c1

>  <HIPPO ID>  (119) 
47655

>  <tags>  (119) 
[]

>  <ref_pdb>  (119) 
c0270a

>  <method>  (119) 
None

>  <ref_url>  (119) 
None

>  <inchikey>  (119) 
LBTGCVLGDBDEJI-UHFFFAOYSA-N

>  <submitter_email>  (119) 
None

>  <ref_mols>  (119) 
c0935a,c1132a

>  <submitter_name>  (119) 
None

$$$$
DYAWXNNNOLJJKZ-UHFFFAOYSA-N
     RDKit          3D

 18 19  0  0  0  0  0  0  0  0999 V2000
   13.7815    8.3092    8.9154 C   0  0  0  0  0  0  0  0  0  0  0  0
   14.7052    8.6101   10.0449 C   0  0  0  0  0  0  0  0  0  0  0  0
   15.7093    9.5649    9.8704 C   0  0  0  0  0  0  0  0  0  0  0  0
   16.3808   10.1651   10.9527 C   0  0  0  0  0  0  0  0  0  0  0  0
   17.4782   10.9671   10.5978 N   0  0  0  0  0  0  0  0  0  0  0  0
   18.2628   11.9794   11.1762 C   0  0  0  0  0  0  0  0  0  0  0  0
   19.6570   11.9651   10.9740 C   0  0  0  0  0  0  0  0  0  0  0  0
   20.2125   10.9624   10.2461 O   0  0  0  0  0  0  0  0  0  0  0  0
   20.4610   12.9577   11.4953 C   0  0  0  0  0  0  0  0  0  0  0  0
   19.9689   13.9795   12.2057 N   0  0  0  0  0  0  0  0  0  0  0  0
   18.6291   13.9888   12.4090 C   0  0  0  0  0  0  0  0  0  0  0  0
   17.7517   13.0336   11.9178 C   0  0  0  0  0  0  0  0  0  0  0  0
   16.4290   13.2053   12.0621 F   0  0  0  0  0  0  0  0  0  0  0  0
   15.8903    9.8937   12.2361 C   0  0  0  0  0  0  0  0  0  0  0  0
   16.1854   10.6859   13.4677 C   0  0  0  0  0  0  0  0  0  0  0  0
   15.0100    8.8083   12.4075 C   0  0  0  0  0  0  0  0  0  0  0  0
   14.4766    8.1344   11.3213 C   0  0  0  0  0  0  0  0  0  0  0  0
   13.6315    7.0971   11.5839 O   0  0  0  0  0  0  0  0  0  0  0  0
  1  2  1  0
  2  3  2  0
  3  4  1  0
  4  5  1  0
  5  6  1  0
  6  7  2  0
  7  8  1  0
  7  9  1  0
  9 10  2  0
 10 11  1  0
 11 12  2  0
 12 13  1  0
  4 14  2  0
 14 15  1  0
 14 16  1  0
 16 17  2  0
 17 18  1  0
 17  2  1  0
 12  6  1  0
M  END
>  <original ID>  (120) 
DYAWXNNNOLJJKZ-UHFFFAOYSA-N

>  <generation_date>  (120) 
None

>  <alias>  (120) 
None

>  <original SMILES>  (120) 
Cc1cc(Nc2c(O)cncc2F)c(C)cc1O

>  <HIPPO ID>  (120) 
47662

>  <tags>  (120) 
[]

>  <ref_pdb>  (120) 
c0270a

>  <method>  (120) 
None

>  <ref_url>  (120) 
None

>  <inchikey>  (120) 
DYAWXNNNOLJJKZ-UHFFFAOYSA-N

>  <submitter_email>  (120) 
None

>  <ref_mols>  (120) 
c0935a,c1132a

>  <submitter_name>  (120) 
None

$$$$
YMSOWQHTLOFGRC-UHFFFAOYSA-N
     RDKit          3D

 18 19  0  0  0  0  0  0  0  0999 V2000
   13.2045    6.5424   10.5432 C   0  0  0  0  0  0  0  0  0  0  0  0
   13.7356    7.3072   11.6185 O   0  0  0  0  0  0  0  0  0  0  0  0
   14.6252    8.2986   11.2978 C   0  0  0  0  0  0  0  0  0  0  0  0
   15.0848    8.5286   10.0099 C   0  0  0  0  0  0  0  0  0  0  0  0
   16.0718    9.4787    9.7877 C   0  0  0  0  0  0  0  0  0  0  0  0
   16.6263   10.2280   10.8317 C   0  0  0  0  0  0  0  0  0  0  0  0
   17.7642   10.9866   10.5395 N   0  0  0  0  0  0  0  0  0  0  0  0
   18.5477   11.9696   11.1683 C   0  0  0  0  0  0  0  0  0  0  0  0
   19.9330   11.9698   10.9035 C   0  0  0  0  0  0  0  0  0  0  0  0
   20.4523   10.9760   10.1346 O   0  0  0  0  0  0  0  0  0  0  0  0
   20.7632   12.9472   11.4123 C   0  0  0  0  0  0  0  0  0  0  0  0
   20.3089   13.9358   12.1903 N   0  0  0  0  0  0  0  0  0  0  0  0
   18.9894   13.9041   12.4937 C   0  0  0  0  0  0  0  0  0  0  0  0
   18.0886   12.9554   12.0284 C   0  0  0  0  0  0  0  0  0  0  0  0
   16.8029   13.0698   12.3765 F   0  0  0  0  0  0  0  0  0  0  0  0
   16.0435   10.1199   12.0870 C   0  0  0  0  0  0  0  0  0  0  0  0
   15.0747    9.1277   12.3439 C   0  0  0  0  0  0  0  0  0  0  0  0
   14.5538    9.0080   13.7493 C   0  0  0  0  0  0  0  0  0  0  0  0
  1  2  1  0
  2  3  1  0
  3  4  2  0
  4  5  1  0
  5  6  2  0
  6  7  1  0
  7  8  1  0
  8  9  2  0
  9 10  1  0
  9 11  1  0
 11 12  2  0
 12 13  1  0
 13 14  2  0
 14 15  1  0
  6 16  1  0
 16 17  2  0
 17 18  1  0
 17  3  1  0
 14  8  1  0
M  END
>  <original ID>  (121) 
YMSOWQHTLOFGRC-UHFFFAOYSA-N

>  <generation_date>  (121) 
None

>  <alias>  (121) 
None

>  <original SMILES>  (121) 
COc1ccc(Nc2c(O)cncc2F)cc1C

>  <HIPPO ID>  (121) 
47668

>  <tags>  (121) 
[]

>  <ref_pdb>  (121) 
c0270a

>  <method>  (121) 
None

>  <ref_url>  (121) 
None

>  <inchikey>  (121) 
YMSOWQHTLOFGRC-UHFFFAOYSA-N

>  <submitter_email>  (121) 
None

>  <ref_mols>  (121) 
c0935a,c1132a

>  <submitter_name>  (121) 
None

$$$$
PRCLIAXUWNNDMB-UHFFFAOYSA-N
     RDKit          3D

 18 19  0  0  0  0  0  0  0  0999 V2000
   13.1211    6.4224   10.5820 C   0  0  0  0  0  0  0  0  0  0  0  0
   13.6717    7.1854   11.6456 O   0  0  0  0  0  0  0  0  0  0  0  0
   14.5646    8.1684   11.3129 C   0  0  0  0  0  0  0  0  0  0  0  0
   14.9790    8.4227   10.0097 C   0  0  0  0  0  0  0  0  0  0  0  0
   15.9666    9.3689    9.7630 C   0  0  0  0  0  0  0  0  0  0  0  0
   16.5604   10.0880   10.8021 C   0  0  0  0  0  0  0  0  0  0  0  0
   17.6887   10.8558   10.5023 N   0  0  0  0  0  0  0  0  0  0  0  0
   18.3813   11.8964   11.1411 C   0  0  0  0  0  0  0  0  0  0  0  0
   19.7723   12.0000   10.9462 C   0  0  0  0  0  0  0  0  0  0  0  0
   20.4099   11.0516   10.2104 O   0  0  0  0  0  0  0  0  0  0  0  0
   20.4878   13.0391   11.5017 C   0  0  0  0  0  0  0  0  0  0  0  0
   19.9103   13.9847   12.2549 N   0  0  0  0  0  0  0  0  0  0  0  0
   18.5808   13.8521   12.4860 C   0  0  0  0  0  0  0  0  0  0  0  0
   17.7883   12.8389   11.9701 C   0  0  0  0  0  0  0  0  0  0  0  0
   16.4687   12.8332   12.2154 F   0  0  0  0  0  0  0  0  0  0  0  0
   16.0310    9.9564   12.0815 C   0  0  0  0  0  0  0  0  0  0  0  0
   15.0709    8.9748   12.3447 C   0  0  0  0  0  0  0  0  0  0  0  0
   14.4921    8.7432   14.3568 I   0  0  0  0  0  0  0  0  0  0  0  0
  1  2  1  0
  2  3  1  0
  3  4  2  0
  4  5  1  0
  5  6  2  0
  6  7  1  0
  7  8  1  0
  8  9  2  0
  9 10  1  0
  9 11  1  0
 11 12  2  0
 12 13  1  0
 13 14  2  0
 14 15  1  0
  6 16  1  0
 16 17  2  0
 17 18  1  0
 17  3  1  0
 14  8  1  0
M  END
>  <original ID>  (122) 
PRCLIAXUWNNDMB-UHFFFAOYSA-N

>  <generation_date>  (122) 
None

>  <alias>  (122) 
None

>  <original SMILES>  (122) 
COc1ccc(Nc2c(O)cncc2F)cc1I

>  <HIPPO ID>  (122) 
47671

>  <tags>  (122) 
[]

>  <ref_pdb>  (122) 
c0270a

>  <method>  (122) 
None

>  <ref_url>  (122) 
None

>  <inchikey>  (122) 
PRCLIAXUWNNDMB-UHFFFAOYSA-N

>  <submitter_email>  (122) 
None

>  <ref_mols>  (122) 
c0935a,c1132a

>  <submitter_name>  (122) 
None

$$$$
YNQPFCCGBVBGEG-UHFFFAOYSA-N
     RDKit          3D

 18 19  0  0  0  0  0  0  0  0999 V2000
   13.9224    8.5056    8.9847 C   0  0  0  0  0  0  0  0  0  0  0  0
   14.7640    8.8388   10.1752 C   0  0  0  0  0  0  0  0  0  0  0  0
   15.5682    9.9892   10.1515 C   0  0  0  0  0  0  0  0  0  0  0  0
   16.2029   10.4544   11.3127 C   0  0  0  0  0  0  0  0  0  0  0  0
   16.7827   11.7577   11.3250 N   0  0  0  0  0  0  0  0  0  0  0  0
   15.8008   12.6581   11.9416 C   0  0  0  0  0  0  0  0  0  0  0  0
   18.1461   12.1274   11.5161 C   0  0  0  0  0  0  0  0  0  0  0  0
   19.1777   11.5058   10.8020 C   0  0  0  0  0  0  0  0  0  0  0  0
   18.9442   10.4917    9.9402 O   0  0  0  0  0  0  0  0  0  0  0  0
   20.5002   11.9267   10.9237 C   0  0  0  0  0  0  0  0  0  0  0  0
   20.8798   12.9570   11.6990 N   0  0  0  0  0  0  0  0  0  0  0  0
   19.9042   13.5437   12.4152 C   0  0  0  0  0  0  0  0  0  0  0  0
   18.5687   13.1705   12.3639 C   0  0  0  0  0  0  0  0  0  0  0  0
   17.7266   13.7789   13.2138 F   0  0  0  0  0  0  0  0  0  0  0  0
   16.0257    9.7333   12.4998 C   0  0  0  0  0  0  0  0  0  0  0  0
   15.2694    8.5601   12.5242 C   0  0  0  0  0  0  0  0  0  0  0  0
   14.6378    8.1258   11.3650 C   0  0  0  0  0  0  0  0  0  0  0  0
   13.8085    7.0401   11.3953 O   0  0  0  0  0  0  0  0  0  0  0  0
  1  2  1  0
  2  3  2  0
  3  4  1  0
  4  5  1  0
  5  6  1  0
  5  7  1  0
  7  8  2  0
  8  9  1  0
  8 10  1  0
 10 11  2  0
 11 12  1  0
 12 13  2  0
 13 14  1  0
  4 15  2  0
 15 16  1  0
 16 17  2  0
 17 18  1  0
 17  2  1  0
 13  7  1  0
M  END
>  <original ID>  (123) 
YNQPFCCGBVBGEG-UHFFFAOYSA-N

>  <generation_date>  (123) 
None

>  <alias>  (123) 
None

>  <original SMILES>  (123) 
Cc1cc(N(C)c2c(O)cncc2F)ccc1O

>  <HIPPO ID>  (123) 
47676

>  <tags>  (123) 
[]

>  <ref_pdb>  (123) 
c0270a

>  <method>  (123) 
None

>  <ref_url>  (123) 
None

>  <inchikey>  (123) 
YNQPFCCGBVBGEG-UHFFFAOYSA-N

>  <submitter_email>  (123) 
None

>  <ref_mols>  (123) 
c0935a,c1132a

>  <submitter_name>  (123) 
None

$$$$
CXUXQDKWVUUWKZ-UHFFFAOYSA-N
     RDKit          3D

 18 19  0  0  0  0  0  0  0  0999 V2000
   21.5665   12.9445   11.0181 N   0  0  0  0  0  0  0  0  0  0  0  0
   20.1930   12.9009   11.2935 C   0  0  0  0  0  0  0  0  0  0  0  0
   19.6340   13.8920   11.9795 N   0  0  0  0  0  0  0  0  0  0  0  0
   18.3120   13.7876   12.2589 C   0  0  0  0  0  0  0  0  0  0  0  0
   17.4937   12.7588   11.8361 C   0  0  0  0  0  0  0  0  0  0  0  0
   18.0667   11.7602   11.0712 C   0  0  0  0  0  0  0  0  0  0  0  0
   17.3408   10.7207   10.4840 N   0  0  0  0  0  0  0  0  0  0  0  0
   16.2371    9.9219   10.8062 C   0  0  0  0  0  0  0  0  0  0  0  0
   15.5831    9.3340    9.7100 C   0  0  0  0  0  0  0  0  0  0  0  0
   14.5977    8.3797    9.8928 C   0  0  0  0  0  0  0  0  0  0  0  0
   13.8951    7.9489    8.8433 F   0  0  0  0  0  0  0  0  0  0  0  0
   14.3131    7.9133   11.1618 C   0  0  0  0  0  0  0  0  0  0  0  0
   13.4243    6.8894   11.3189 O   0  0  0  0  0  0  0  0  0  0  0  0
   14.8516    8.5615   12.2643 C   0  0  0  0  0  0  0  0  0  0  0  0
   15.7395    9.6285   12.0852 C   0  0  0  0  0  0  0  0  0  0  0  0
   16.1798   10.4535   13.5324 Cl  0  0  0  0  0  0  0  0  0  0  0  0
   19.4459   11.8337   10.8448 C   0  0  0  0  0  0  0  0  0  0  0  0
   20.0981   10.8506   10.1680 O   0  0  0  0  0  0  0  0  0  0  0  0
  1  2  1  0
  2  3  2  0
  3  4  1  0
  4  5  2  0
  5  6  1  0
  6  7  1  0
  7  8  1  0
  8  9  2  0
  9 10  1  0
 10 11  1  0
 10 12  2  0
 12 13  1  0
 12 14  1  0
 14 15  2  0
 15 16  1  0
  6 17  2  0
 17 18  1  0
 17  2  1  0
 15  8  1  0
M  END
>  <original ID>  (124) 
CXUXQDKWVUUWKZ-UHFFFAOYSA-N

>  <generation_date>  (124) 
None

>  <alias>  (124) 
None

>  <original SMILES>  (124) 
Nc1nccc(Nc2cc(F)c(O)cc2Cl)c1O

>  <HIPPO ID>  (124) 
47716

>  <tags>  (124) 
[]

>  <ref_pdb>  (124) 
c0270a

>  <method>  (124) 
None

>  <ref_url>  (124) 
None

>  <inchikey>  (124) 
CXUXQDKWVUUWKZ-UHFFFAOYSA-N

>  <submitter_email>  (124) 
None

>  <ref_mols>  (124) 
c0935a,c1132a

>  <submitter_name>  (124) 
None

$$$$
PDJRRQKKLNBQBM-UHFFFAOYSA-N
     RDKit          3D

 18 19  0  0  0  0  0  0  0  0999 V2000
   13.7825    8.0832    9.1175 C   0  0  0  0  0  0  0  0  0  0  0  0
   14.6781    8.5834   10.1984 C   0  0  0  0  0  0  0  0  0  0  0  0
   15.5941    9.5835    9.9056 C   0  0  0  0  0  0  0  0  0  0  0  0
   16.3042   10.2387   10.9149 C   0  0  0  0  0  0  0  0  0  0  0  0
   17.2702   11.1510   10.4897 N   0  0  0  0  0  0  0  0  0  0  0  0
   18.2395   11.9208   11.1428 C   0  0  0  0  0  0  0  0  0  0  0  0
   17.9752   12.9003   12.0779 C   0  0  0  0  0  0  0  0  0  0  0  0
   19.0565   13.6666   12.5110 C   0  0  0  0  0  0  0  0  0  0  0  0
   20.3476   13.5057   12.1118 N   0  0  0  0  0  0  0  0  0  0  0  0
   20.5826   12.5263   11.2478 C   0  0  0  0  0  0  0  0  0  0  0  0
   21.8793   12.2682   10.8026 N   0  0  0  0  0  0  0  0  0  0  0  0
   19.5672   11.7319   10.7739 C   0  0  0  0  0  0  0  0  0  0  0  0
   19.8960   10.7355    9.9149 O   0  0  0  0  0  0  0  0  0  0  0  0
   15.9712    9.9843   12.2387 C   0  0  0  0  0  0  0  0  0  0  0  0
   15.0783    8.9499   12.5630 C   0  0  0  0  0  0  0  0  0  0  0  0
   14.7538    8.6978   14.0041 C   0  0  0  0  0  0  0  0  0  0  0  0
   14.5072    8.2014   11.5243 C   0  0  0  0  0  0  0  0  0  0  0  0
   13.6808    7.1357   11.7629 O   0  0  0  0  0  0  0  0  0  0  0  0
  1  2  1  0
  2  3  2  0
  3  4  1  0
  4  5  1  0
  5  6  1  0
  6  7  2  0
  7  8  1  0
  8  9  2  0
  9 10  1  0
 10 11  1  0
 10 12  2  0
 12 13  1  0
  4 14  2  0
 14 15  1  0
 15 16  1  0
 15 17  2  0
 17 18  1  0
 17  2  1  0
 12  6  1  0
M  END
>  <original ID>  (125) 
PDJRRQKKLNBQBM-UHFFFAOYSA-N

>  <generation_date>  (125) 
None

>  <alias>  (125) 
None

>  <original SMILES>  (125) 
Cc1cc(Nc2ccnc(N)c2O)cc(C)c1O

>  <HIPPO ID>  (125) 
47736

>  <tags>  (125) 
[]

>  <ref_pdb>  (125) 
c0270a

>  <method>  (125) 
None

>  <ref_url>  (125) 
None

>  <inchikey>  (125) 
PDJRRQKKLNBQBM-UHFFFAOYSA-N

>  <submitter_email>  (125) 
None

>  <ref_mols>  (125) 
c0935a,c1132a

>  <submitter_name>  (125) 
None

$$$$
FJUZWNAKNGURJR-UHFFFAOYSA-N
     RDKit          3D

 18 19  0  0  0  0  0  0  0  0999 V2000
   13.1426    6.3181   10.7218 C   0  0  0  0  0  0  0  0  0  0  0  0
   13.6416    7.1421   11.7729 O   0  0  0  0  0  0  0  0  0  0  0  0
   14.5298    8.1258   11.4254 C   0  0  0  0  0  0  0  0  0  0  0  0
   14.9343    8.3522   10.1232 C   0  0  0  0  0  0  0  0  0  0  0  0
   15.8910    9.3171    9.8612 C   0  0  0  0  0  0  0  0  0  0  0  0
   16.2378    9.4274    8.5552 O   0  0  0  0  0  0  0  0  0  0  0  0
   16.4987   10.0812   10.8610 C   0  0  0  0  0  0  0  0  0  0  0  0
   17.6173   10.8591   10.5216 N   0  0  0  0  0  0  0  0  0  0  0  0
   18.3416   11.8751   11.1723 C   0  0  0  0  0  0  0  0  0  0  0  0
   17.7515   12.8348   11.9807 C   0  0  0  0  0  0  0  0  0  0  0  0
   18.5626   13.8459   12.4750 C   0  0  0  0  0  0  0  0  0  0  0  0
   19.8879   13.9606   12.2307 N   0  0  0  0  0  0  0  0  0  0  0  0
   20.4545   13.0056   11.4835 C   0  0  0  0  0  0  0  0  0  0  0  0
   19.7277   11.9678   10.9486 C   0  0  0  0  0  0  0  0  0  0  0  0
   20.3401   11.0095   10.2066 O   0  0  0  0  0  0  0  0  0  0  0  0
   15.9810    9.9655   12.1459 C   0  0  0  0  0  0  0  0  0  0  0  0
   15.0250    8.9767   12.4302 C   0  0  0  0  0  0  0  0  0  0  0  0
   14.4446    8.8295   14.2366 Br  0  0  0  0  0  0  0  0  0  0  0  0
  1  2  1  0
  2  3  1  0
  3  4  2  0
  4  5  1  0
  5  6  1  0
  5  7  2  0
  7  8  1  0
  8  9  1  0
  9 10  2  0
 10 11  1  0
 11 12  2  0
 12 13  1  0
 13 14  2  0
 14 15  1  0
  7 16  1  0
 16 17  2  0
 17 18  1  0
 17  3  1  0
 14  9  1  0
M  END
>  <original ID>  (126) 
FJUZWNAKNGURJR-UHFFFAOYSA-N

>  <generation_date>  (126) 
None

>  <alias>  (126) 
None

>  <original SMILES>  (126) 
COc1cc(O)c(Nc2ccncc2O)cc1Br

>  <HIPPO ID>  (126) 
47739

>  <tags>  (126) 
[]

>  <ref_pdb>  (126) 
c0270a

>  <method>  (126) 
None

>  <ref_url>  (126) 
None

>  <inchikey>  (126) 
FJUZWNAKNGURJR-UHFFFAOYSA-N

>  <submitter_email>  (126) 
None

>  <ref_mols>  (126) 
c0935a,c1132a

>  <submitter_name>  (126) 
None

$$$$
XFAPXHPOKBIXMV-UHFFFAOYSA-N
     RDKit          3D

 18 19  0  0  0  0  0  0  0  0999 V2000
   13.2722    6.3891   10.4342 C   0  0  0  0  0  0  0  0  0  0  0  0
   13.6395    7.2669   11.4895 O   0  0  0  0  0  0  0  0  0  0  0  0
   14.5088    8.2726   11.1672 C   0  0  0  0  0  0  0  0  0  0  0  0
   14.8929    8.6452    9.8921 C   0  0  0  0  0  0  0  0  0  0  0  0
   14.2706    8.1808    8.8070 F   0  0  0  0  0  0  0  0  0  0  0  0
   15.9266    9.5428    9.7013 C   0  0  0  0  0  0  0  0  0  0  0  0
   16.5575   10.1594   10.7833 C   0  0  0  0  0  0  0  0  0  0  0  0
   17.7167   10.8912   10.5265 N   0  0  0  0  0  0  0  0  0  0  0  0
   18.4238   11.9170   11.1680 C   0  0  0  0  0  0  0  0  0  0  0  0
   17.8292   12.8507   12.0024 C   0  0  0  0  0  0  0  0  0  0  0  0
   18.6319   13.8627   12.5073 C   0  0  0  0  0  0  0  0  0  0  0  0
   19.9558   13.9912   12.2630 N   0  0  0  0  0  0  0  0  0  0  0  0
   20.5301   13.0465   11.5082 C   0  0  0  0  0  0  0  0  0  0  0  0
   19.8115   12.0111   10.9587 C   0  0  0  0  0  0  0  0  0  0  0  0
   20.4338   11.0601   10.2147 O   0  0  0  0  0  0  0  0  0  0  0  0
   16.0031    9.9880   12.0455 C   0  0  0  0  0  0  0  0  0  0  0  0
   15.0109    9.0263   12.2292 C   0  0  0  0  0  0  0  0  0  0  0  0
   14.5286    8.8351   13.4671 F   0  0  0  0  0  0  0  0  0  0  0  0
  1  2  1  0
  2  3  1  0
  3  4  2  0
  4  5  1  0
  4  6  1  0
  6  7  2  0
  7  8  1  0
  8  9  1  0
  9 10  2  0
 10 11  1  0
 11 12  2  0
 12 13  1  0
 13 14  2  0
 14 15  1  0
  7 16  1  0
 16 17  2  0
 17 18  1  0
 17  3  1  0
 14  9  1  0
M  END
>  <original ID>  (127) 
XFAPXHPOKBIXMV-UHFFFAOYSA-N

>  <generation_date>  (127) 
None

>  <alias>  (127) 
None

>  <original SMILES>  (127) 
COc1c(F)cc(Nc2ccncc2O)cc1F

>  <HIPPO ID>  (127) 
47741

>  <tags>  (127) 
[]

>  <ref_pdb>  (127) 
c0270a

>  <method>  (127) 
None

>  <ref_url>  (127) 
None

>  <inchikey>  (127) 
XFAPXHPOKBIXMV-UHFFFAOYSA-N

>  <submitter_email>  (127) 
None

>  <ref_mols>  (127) 
c0935a,c1132a

>  <submitter_name>  (127) 
None

$$$$
KBAKUKDMJFVOKQ-UHFFFAOYSA-N
     RDKit          3D

 18 19  0  0  0  0  0  0  0  0999 V2000
   15.5557   11.3022    9.5303 O   0  0  0  0  0  0  0  0  0  0  0  0
   16.1963   10.2879    9.7923 N   0  0  0  0  0  4  0  0  0  0  0  0
   17.3203    9.9452    9.4559 O   0  0  0  0  0  1  0  0  0  0  0  0
   15.5927    9.4045   10.6675 C   0  0  0  0  0  0  0  0  0  0  0  0
   14.8550    8.3788   10.0698 C   0  0  0  0  0  0  0  0  0  0  0  0
   14.2640    7.4624   10.8952 C   0  0  0  0  0  0  0  0  0  0  0  0
   14.4094    7.6358   12.2644 C   0  0  0  0  0  0  0  0  0  0  0  0
   13.6920    6.7712   13.0344 O   0  0  0  0  0  0  0  0  0  0  0  0
   15.1810    8.6771   12.8320 C   0  0  0  0  0  0  0  0  0  0  0  0
   15.8138    9.6236   12.0170 C   0  0  0  0  0  0  0  0  0  0  0  0
   16.6662   10.6143   12.5832 N   0  0  0  0  0  0  0  0  0  0  0  0
   17.4607   11.7260   12.1169 C   0  0  0  0  0  0  0  0  0  0  0  0
   17.1251   12.9860   12.6349 C   0  0  0  0  0  0  0  0  0  0  0  0
   17.9875   14.0596   12.4504 C   0  0  0  0  0  0  0  0  0  0  0  0
   19.1428   14.0024   11.7614 N   0  0  0  0  0  0  0  0  0  0  0  0
   19.4473   12.8130   11.2178 C   0  0  0  0  0  0  0  0  0  0  0  0
   18.6437   11.6830   11.3390 C   0  0  0  0  0  0  0  0  0  0  0  0
   19.2131   10.5567   10.8387 O   0  0  0  0  0  0  0  0  0  0  0  0
  1  2  2  0
  2  3  1  0
  2  4  1  0
  4  5  2  0
  5  6  1  0
  6  7  2  0
  7  8  1  0
  7  9  1  0
  9 10  2  0
 10 11  1  0
 11 12  1  0
 12 13  2  0
 13 14  1  0
 14 15  2  0
 15 16  1  0
 16 17  2  0
 17 18  1  0
 10  4  1  0
 17 12  1  0
M  CHG  2   2   1   3  -1
M  END
>  <original ID>  (128) 
KBAKUKDMJFVOKQ-UHFFFAOYSA-N

>  <generation_date>  (128) 
None

>  <alias>  (128) 
None

>  <original SMILES>  (128) 
O=[N+]([O-])c1ccc(O)cc1Nc1ccncc1O

>  <HIPPO ID>  (128) 
47744

>  <tags>  (128) 
[]

>  <ref_pdb>  (128) 
c0270a

>  <method>  (128) 
None

>  <ref_url>  (128) 
None

>  <inchikey>  (128) 
KBAKUKDMJFVOKQ-UHFFFAOYSA-N

>  <submitter_email>  (128) 
None

>  <ref_mols>  (128) 
c0935a,c1132a

>  <submitter_name>  (128) 
None

$$$$
BCBHOAKVUPIKAW-UHFFFAOYSA-N
     RDKit          3D

 18 19  0  0  0  0  0  0  0  0999 V2000
   13.3611    6.7548    9.5401 O   0  0  0  0  0  0  0  0  0  0  0  0
   13.9486    7.8054    9.3390 C   0  0  0  0  0  0  0  0  0  0  0  0
   13.8711    8.4568    8.1792 O   0  0  0  0  0  0  0  0  0  0  0  0
   14.7663    8.5040   10.3319 C   0  0  0  0  0  0  0  0  0  0  0  0
   15.7182    9.4586    9.9684 C   0  0  0  0  0  0  0  0  0  0  0  0
   16.4390   10.1505   10.9501 C   0  0  0  0  0  0  0  0  0  0  0  0
   17.5086   10.9559   10.5391 N   0  0  0  0  0  0  0  0  0  0  0  0
   18.3026   11.9280   11.1731 C   0  0  0  0  0  0  0  0  0  0  0  0
   17.7766   12.8820   12.0323 C   0  0  0  0  0  0  0  0  0  0  0  0
   18.6384   13.8511   12.5247 C   0  0  0  0  0  0  0  0  0  0  0  0
   19.9606   13.9185   12.2493 N   0  0  0  0  0  0  0  0  0  0  0  0
   20.4679   12.9558   11.4700 C   0  0  0  0  0  0  0  0  0  0  0  0
   19.6864   11.9608   10.9280 C   0  0  0  0  0  0  0  0  0  0  0  0
   20.2496   10.9949   10.1596 O   0  0  0  0  0  0  0  0  0  0  0  0
   16.0705    9.9824   12.2869 C   0  0  0  0  0  0  0  0  0  0  0  0
   15.1751    8.9756   12.6542 C   0  0  0  0  0  0  0  0  0  0  0  0
   14.5715    8.1991   11.6754 C   0  0  0  0  0  0  0  0  0  0  0  0
   13.7508    7.1868   12.0981 O   0  0  0  0  0  0  0  0  0  0  0  0
  1  2  2  0
  2  3  1  0
  2  4  1  0
  4  5  2  0
  5  6  1  0
  6  7  1  0
  7  8  1  0
  8  9  2  0
  9 10  1  0
 10 11  2  0
 11 12  1  0
 12 13  2  0
 13 14  1  0
  6 15  2  0
 15 16  1  0
 16 17  2  0
 17 18  1  0
 17  4  1  0
 13  8  1  0
M  END
>  <original ID>  (129) 
BCBHOAKVUPIKAW-UHFFFAOYSA-N

>  <generation_date>  (129) 
None

>  <alias>  (129) 
None

>  <original SMILES>  (129) 
O=C(O)c1cc(Nc2ccncc2O)ccc1O

>  <HIPPO ID>  (129) 
47755

>  <tags>  (129) 
[]

>  <ref_pdb>  (129) 
c0270a

>  <method>  (129) 
None

>  <ref_url>  (129) 
None

>  <inchikey>  (129) 
BCBHOAKVUPIKAW-UHFFFAOYSA-N

>  <submitter_email>  (129) 
None

>  <ref_mols>  (129) 
c0935a,c1132a

>  <submitter_name>  (129) 
None

$$$$
ZLVWJSLOQKZCSH-UHFFFAOYSA-N
     RDKit          3D

 18 19  0  0  0  0  0  0  0  0999 V2000
   16.8980   11.0498   13.7912 O   0  0  0  0  0  0  0  0  0  0  0  0
   15.8116   10.9062   13.2292 N   0  0  0  0  0  4  0  0  0  0  0  0
   14.7511   11.4167   13.6144 O   0  0  0  0  0  1  0  0  0  0  0  0
   15.7240    9.9971   12.1150 C   0  0  0  0  0  0  0  0  0  0  0  0
   14.8627    8.9033   12.3320 C   0  0  0  0  0  0  0  0  0  0  0  0
   14.5264    8.0752   11.2750 C   0  0  0  0  0  0  0  0  0  0  0  0
   13.6709    7.0274   11.4246 O   0  0  0  0  0  0  0  0  0  0  0  0
   15.0012    8.3482   10.0130 C   0  0  0  0  0  0  0  0  0  0  0  0
   15.9329    9.3723    9.8381 C   0  0  0  0  0  0  0  0  0  0  0  0
   16.3907   10.1830   10.9032 C   0  0  0  0  0  0  0  0  0  0  0  0
   17.4508   11.0425   10.5702 N   0  0  0  0  0  0  0  0  0  0  0  0
   18.2596   12.0205   11.1821 C   0  0  0  0  0  0  0  0  0  0  0  0
   17.7757   13.0590   11.9594 C   0  0  0  0  0  0  0  0  0  0  0  0
   18.6855   13.9907   12.4443 C   0  0  0  0  0  0  0  0  0  0  0  0
   20.0150   13.9739   12.1991 N   0  0  0  0  0  0  0  0  0  0  0  0
   20.4791   12.9552   11.4688 C   0  0  0  0  0  0  0  0  0  0  0  0
   19.6502   11.9819   10.9560 C   0  0  0  0  0  0  0  0  0  0  0  0
   20.1705   10.9732   10.2105 O   0  0  0  0  0  0  0  0  0  0  0  0
  1  2  2  0
  2  3  1  0
  2  4  1  0
  4  5  2  0
  5  6  1  0
  6  7  1  0
  6  8  2  0
  8  9  1  0
  9 10  2  0
 10 11  1  0
 11 12  1  0
 12 13  2  0
 13 14  1  0
 14 15  2  0
 15 16  1  0
 16 17  2  0
 17 18  1  0
 10  4  1  0
 17 12  1  0
M  CHG  2   2   1   3  -1
M  END
>  <original ID>  (130) 
ZLVWJSLOQKZCSH-UHFFFAOYSA-N

>  <generation_date>  (130) 
None

>  <alias>  (130) 
None

>  <original SMILES>  (130) 
O=[N+]([O-])c1cc(O)ccc1Nc1ccncc1O

>  <HIPPO ID>  (130) 
47756

>  <tags>  (130) 
[]

>  <ref_pdb>  (130) 
c0270a

>  <method>  (130) 
None

>  <ref_url>  (130) 
None

>  <inchikey>  (130) 
ZLVWJSLOQKZCSH-UHFFFAOYSA-N

>  <submitter_email>  (130) 
None

>  <ref_mols>  (130) 
c0935a,c1132a

>  <submitter_name>  (130) 
None

$$$$
NGBZETHUHSWHKF-UHFFFAOYSA-N
     RDKit          3D

 18 19  0  0  0  0  0  0  0  0999 V2000
   13.0555    6.1075   11.9069 C   0  0  0  0  0  0  0  0  0  0  0  0
   13.6300    7.0388   12.8127 O   0  0  0  0  0  0  0  0  0  0  0  0
   14.4837    7.9781   12.3178 C   0  0  0  0  0  0  0  0  0  0  0  0
   14.8007    8.1421   10.9973 C   0  0  0  0  0  0  0  0  0  0  0  0
   15.5704    9.2470   10.6393 C   0  0  0  0  0  0  0  0  0  0  0  0
   15.6222    9.5617    8.8190 Br  0  0  0  0  0  0  0  0  0  0  0  0
   16.1679   10.1715   11.5262 C   0  0  0  0  0  0  0  0  0  0  0  0
   17.0427   11.1293   10.9428 N   0  0  0  0  0  0  0  0  0  0  0  0
   18.0164   12.0478   11.3946 C   0  0  0  0  0  0  0  0  0  0  0  0
   17.7175   13.1612   12.1591 C   0  0  0  0  0  0  0  0  0  0  0  0
   18.7515   14.0345   12.4806 C   0  0  0  0  0  0  0  0  0  0  0  0
   20.0378   13.8908   12.0870 N   0  0  0  0  0  0  0  0  0  0  0  0
   20.3211   12.8123   11.3520 C   0  0  0  0  0  0  0  0  0  0  0  0
   19.3560   11.8967   10.9883 C   0  0  0  0  0  0  0  0  0  0  0  0
   19.6912   10.8446   10.2049 O   0  0  0  0  0  0  0  0  0  0  0  0
   15.7457   10.0283   12.8439 C   0  0  0  0  0  0  0  0  0  0  0  0
   16.0690   11.2635   14.2330 Br  0  0  0  0  0  0  0  0  0  0  0  0
   14.9439    8.9280   13.2316 C   0  0  0  0  0  0  0  0  0  0  0  0
  1  2  1  0
  2  3  1  0
  3  4  2  0
  4  5  1  0
  5  6  1  0
  5  7  2  0
  7  8  1  0
  8  9  1  0
  9 10  2  0
 10 11  1  0
 11 12  2  0
 12 13  1  0
 13 14  2  0
 14 15  1  0
  7 16  1  0
 16 17  1  0
 16 18  2  0
 18  3  1  0
 14  9  1  0
M  END
>  <original ID>  (131) 
NGBZETHUHSWHKF-UHFFFAOYSA-N

>  <generation_date>  (131) 
None

>  <alias>  (131) 
None

>  <original SMILES>  (131) 
COc1cc(Br)c(Nc2ccncc2O)c(Br)c1

>  <HIPPO ID>  (131) 
47762

>  <tags>  (131) 
[]

>  <ref_pdb>  (131) 
c0270a

>  <method>  (131) 
None

>  <ref_url>  (131) 
None

>  <inchikey>  (131) 
NGBZETHUHSWHKF-UHFFFAOYSA-N

>  <submitter_email>  (131) 
None

>  <ref_mols>  (131) 
c0935a,c1132a

>  <submitter_name>  (131) 
None

$$$$
HCNZKKBJKHYAFZ-UHFFFAOYSA-N
     RDKit          3D

 18 19  0  0  0  0  0  0  0  0999 V2000
   13.2232    6.5066   12.3832 C   0  0  0  0  0  0  0  0  0  0  0  0
   13.5279    7.2640   11.2355 O   0  0  0  0  0  0  0  0  0  0  0  0
   14.4508    8.2717   11.2526 C   0  0  0  0  0  0  0  0  0  0  0  0
   14.7462    8.7624    9.9784 C   0  0  0  0  0  0  0  0  0  0  0  0
   13.6910    8.4595    8.6613 Cl  0  0  0  0  0  0  0  0  0  0  0  0
   15.8081    9.6218    9.7570 C   0  0  0  0  0  0  0  0  0  0  0  0
   16.5350   10.1299   10.8238 C   0  0  0  0  0  0  0  0  0  0  0  0
   17.6903   10.8564   10.5422 N   0  0  0  0  0  0  0  0  0  0  0  0
   18.4021   11.8868   11.1705 C   0  0  0  0  0  0  0  0  0  0  0  0
   17.8107   12.8203   12.0082 C   0  0  0  0  0  0  0  0  0  0  0  0
   18.6138   13.8358   12.5045 C   0  0  0  0  0  0  0  0  0  0  0  0
   19.9361   13.9637   12.2530 N   0  0  0  0  0  0  0  0  0  0  0  0
   20.5073   13.0192   11.4970 C   0  0  0  0  0  0  0  0  0  0  0  0
   19.7876   11.9830   10.9516 C   0  0  0  0  0  0  0  0  0  0  0  0
   20.4077   11.0335   10.2050 O   0  0  0  0  0  0  0  0  0  0  0  0
   16.0560    9.8867   12.1069 C   0  0  0  0  0  0  0  0  0  0  0  0
   15.0485    8.9318   12.3302 C   0  0  0  0  0  0  0  0  0  0  0  0
   14.5722    8.7390   13.9811 Cl  0  0  0  0  0  0  0  0  0  0  0  0
  1  2  1  0
  2  3  1  0
  3  4  2  0
  4  5  1  0
  4  6  1  0
  6  7  2  0
  7  8  1  0
  8  9  1  0
  9 10  2  0
 10 11  1  0
 11 12  2  0
 12 13  1  0
 13 14  2  0
 14 15  1  0
  7 16  1  0
 16 17  2  0
 17 18  1  0
 17  3  1  0
 14  9  1  0
M  END
>  <original ID>  (132) 
HCNZKKBJKHYAFZ-UHFFFAOYSA-N

>  <generation_date>  (132) 
None

>  <alias>  (132) 
None

>  <original SMILES>  (132) 
COc1c(Cl)cc(Nc2ccncc2O)cc1Cl

>  <HIPPO ID>  (132) 
47776

>  <tags>  (132) 
[]

>  <ref_pdb>  (132) 
c0270a

>  <method>  (132) 
None

>  <ref_url>  (132) 
None

>  <inchikey>  (132) 
HCNZKKBJKHYAFZ-UHFFFAOYSA-N

>  <submitter_email>  (132) 
None

>  <ref_mols>  (132) 
c0935a,c1132a

>  <submitter_name>  (132) 
None

$$$$
GCPDJDFKHBFHGO-UHFFFAOYSA-N
     RDKit          3D

 18 19  0  0  0  0  0  0  0  0999 V2000
   21.5549   11.4558   10.5172 C   0  0  0  0  0  0  0  0  0  0  0  0
   20.1335   11.3729   10.4293 O   0  0  0  0  0  0  0  0  0  0  0  0
   19.4205   12.2689   11.1794 C   0  0  0  0  0  0  0  0  0  0  0  0
   19.9501   13.3808   11.8220 C   0  0  0  0  0  0  0  0  0  0  0  0
   19.2163   14.2420   12.5611 N   0  0  0  0  0  0  0  0  0  0  0  0
   17.9028   13.9524   12.6944 C   0  0  0  0  0  0  0  0  0  0  0  0
   17.1350   14.9207   13.4990 C   0  0  0  0  0  0  0  0  0  0  0  0
   15.9412   14.7779   13.7310 O   0  0  0  0  0  0  0  0  0  0  0  0
   17.2752   12.8598   12.1137 C   0  0  0  0  0  0  0  0  0  0  0  0
   18.0359   12.0197   11.3024 C   0  0  0  0  0  0  0  0  0  0  0  0
   17.4662   10.9328   10.6122 N   0  0  0  0  0  0  0  0  0  0  0  0
   16.4035   10.0571   10.8701 C   0  0  0  0  0  0  0  0  0  0  0  0
   15.8450    9.3499    9.7955 C   0  0  0  0  0  0  0  0  0  0  0  0
   14.8890    8.3592   10.0030 C   0  0  0  0  0  0  0  0  0  0  0  0
   14.5041    8.0550   11.2945 C   0  0  0  0  0  0  0  0  0  0  0  0
   13.6226    7.0294   11.4707 O   0  0  0  0  0  0  0  0  0  0  0  0
   14.9762    8.8000   12.3707 C   0  0  0  0  0  0  0  0  0  0  0  0
   15.8945    9.8281   12.1497 C   0  0  0  0  0  0  0  0  0  0  0  0
  1  2  1  0
  2  3  1  0
  3  4  2  0
  4  5  1  0
  5  6  2  0
  6  7  1  0
  7  8  2  0
  6  9  1  0
  9 10  2  0
 10 11  1  0
 11 12  1  0
 12 13  2  0
 13 14  1  0
 14 15  2  0
 15 16  1  0
 15 17  1  0
 17 18  2  0
 10  3  1  0
 18 12  1  0
M  END
>  <original ID>  (133) 
GCPDJDFKHBFHGO-UHFFFAOYSA-N

>  <generation_date>  (133) 
None

>  <alias>  (133) 
None

>  <original SMILES>  (133) 
COc1cnc(C=O)cc1Nc1ccc(O)cc1

>  <HIPPO ID>  (133) 
47785

>  <tags>  (133) 
[]

>  <ref_pdb>  (133) 
c0270a

>  <method>  (133) 
None

>  <ref_url>  (133) 
None

>  <inchikey>  (133) 
GCPDJDFKHBFHGO-UHFFFAOYSA-N

>  <submitter_email>  (133) 
None

>  <ref_mols>  (133) 
c0935a,c1132a

>  <submitter_name>  (133) 
None

$$$$
KBPGXMSKCXKUOM-UHFFFAOYSA-N
     RDKit          3D

 18 19  0  0  0  0  0  0  0  0999 V2000
   13.9548    8.5174    9.0600 C   0  0  0  0  0  0  0  0  0  0  0  0
   14.7341    9.0211   10.2326 C   0  0  0  0  0  0  0  0  0  0  0  0
   15.5632   10.1367   10.0574 C   0  0  0  0  0  0  0  0  0  0  0  0
   16.3079   10.6976   11.1223 C   0  0  0  0  0  0  0  0  0  0  0  0
   17.5075   11.4131   10.7812 N   0  0  0  0  0  0  0  0  0  0  0  0
   18.4192   10.3982   10.3164 C   0  0  0  0  0  0  0  0  0  0  0  0
   18.2574   12.4394   11.4229 C   0  0  0  0  0  0  0  0  0  0  0  0
   19.6333   12.6519   11.1210 C   0  0  0  0  0  0  0  0  0  0  0  0
   20.3397   13.6846   11.7011 C   0  0  0  0  0  0  0  0  0  0  0  0
   19.7750   14.5556   12.5439 N   0  0  0  0  0  0  0  0  0  0  0  0
   18.4766   14.3687   12.8183 C   0  0  0  0  0  0  0  0  0  0  0  0
   17.8877   15.2928   13.6842 N   0  0  0  0  0  0  0  0  0  0  0  0
   17.6859   13.3523   12.2845 C   0  0  0  0  0  0  0  0  0  0  0  0
   16.3511   13.3349   12.5752 O   0  0  0  0  0  0  0  0  0  0  0  0
   16.0514   10.2416   12.4135 C   0  0  0  0  0  0  0  0  0  0  0  0
   15.2291    9.1258   12.6028 C   0  0  0  0  0  0  0  0  0  0  0  0
   14.6301    8.4892   11.5142 C   0  0  0  0  0  0  0  0  0  0  0  0
   13.9097    7.3597   11.7894 O   0  0  0  0  0  0  0  0  0  0  0  0
  1  2  1  0
  2  3  2  0
  3  4  1  0
  4  5  1  0
  5  6  1  0
  5  7  1  0
  7  8  2  0
  8  9  1  0
  9 10  2  0
 10 11  1  0
 11 12  1  0
 11 13  2  0
 13 14  1  0
  4 15  2  0
 15 16  1  0
 16 17  2  0
 17 18  1  0
 17  2  1  0
 13  7  1  0
M  END
>  <original ID>  (134) 
KBPGXMSKCXKUOM-UHFFFAOYSA-N

>  <generation_date>  (134) 
None

>  <alias>  (134) 
None

>  <original SMILES>  (134) 
Cc1cc(N(C)c2ccnc(N)c2O)ccc1O

>  <HIPPO ID>  (134) 
47796

>  <tags>  (134) 
[]

>  <ref_pdb>  (134) 
c0270a

>  <method>  (134) 
None

>  <ref_url>  (134) 
None

>  <inchikey>  (134) 
KBPGXMSKCXKUOM-UHFFFAOYSA-N

>  <submitter_email>  (134) 
None

>  <ref_mols>  (134) 
c0935a,c1132a

>  <submitter_name>  (134) 
None

$$$$
UIPBAPIBDCNCSI-UHFFFAOYSA-N
     RDKit          3D

 18 19  0  0  0  0  0  0  0  0999 V2000
   21.3808   11.2826   10.5781 C   0  0  0  0  0  0  0  0  0  0  0  0
   19.9658   11.3649   10.5520 O   0  0  0  0  0  0  0  0  0  0  0  0
   19.3099   12.2953   11.3200 C   0  0  0  0  0  0  0  0  0  0  0  0
   17.9038   12.0943   11.3569 C   0  0  0  0  0  0  0  0  0  0  0  0
   17.3472   11.0059   10.6531 N   0  0  0  0  0  0  0  0  0  0  0  0
   16.2949   10.0968   10.8564 C   0  0  0  0  0  0  0  0  0  0  0  0
   15.7847    9.4948    9.6900 C   0  0  0  0  0  0  0  0  0  0  0  0
   14.8340    8.4830    9.7324 C   0  0  0  0  0  0  0  0  0  0  0  0
   14.4225    8.0056   10.9567 C   0  0  0  0  0  0  0  0  0  0  0  0
   13.5564    6.9582   11.0412 O   0  0  0  0  0  0  0  0  0  0  0  0
   14.8421    8.6218   12.1261 C   0  0  0  0  0  0  0  0  0  0  0  0
   15.7203    9.7113   12.0772 C   0  0  0  0  0  0  0  0  0  0  0  0
   16.0886   10.4252   13.6031 Cl  0  0  0  0  0  0  0  0  0  0  0  0
   17.1067   12.9692   12.0863 C   0  0  0  0  0  0  0  0  0  0  0  0
   17.7187   14.0111   12.7431 C   0  0  0  0  0  0  0  0  0  0  0  0
   19.0485   14.2143   12.7366 N   0  0  0  0  0  0  0  0  0  0  0  0
   19.8414   13.3649   12.0508 C   0  0  0  0  0  0  0  0  0  0  0  0
   21.1958   13.5989   12.2447 N   0  0  0  0  0  0  0  0  0  0  0  0
  1  2  1  0
  2  3  1  0
  3  4  2  0
  4  5  1  0
  5  6  1  0
  6  7  2  0
  7  8  1  0
  8  9  2  0
  9 10  1  0
  9 11  1  0
 11 12  2  0
 12 13  1  0
  4 14  1  0
 14 15  2  0
 15 16  1  0
 16 17  2  0
 17 18  1  0
 17  3  1  0
 12  6  1  0
M  END
>  <original ID>  (135) 
UIPBAPIBDCNCSI-UHFFFAOYSA-N

>  <generation_date>  (135) 
None

>  <alias>  (135) 
None

>  <original SMILES>  (135) 
COc1c(Nc2ccc(O)cc2Cl)ccnc1N

>  <HIPPO ID>  (135) 
47847

>  <tags>  (135) 
[]

>  <ref_pdb>  (135) 
c0270a

>  <method>  (135) 
None

>  <ref_url>  (135) 
None

>  <inchikey>  (135) 
UIPBAPIBDCNCSI-UHFFFAOYSA-N

>  <submitter_email>  (135) 
None

>  <ref_mols>  (135) 
c0935a,c1132a

>  <submitter_name>  (135) 
None

$$$$
CONFZKGTKVHOIN-UHFFFAOYSA-N
     RDKit          3D

 18 19  0  0  0  0  0  0  0  0999 V2000
   21.4688   11.3731   10.4084 C   0  0  0  0  0  0  0  0  0  0  0  0
   20.0490   11.3468   10.4491 O   0  0  0  0  0  0  0  0  0  0  0  0
   19.3835   12.2580   11.2295 C   0  0  0  0  0  0  0  0  0  0  0  0
   17.9896   12.0197   11.3201 C   0  0  0  0  0  0  0  0  0  0  0  0
   17.4265   10.9540   10.5892 N   0  0  0  0  0  0  0  0  0  0  0  0
   16.3700   10.0623   10.8132 C   0  0  0  0  0  0  0  0  0  0  0  0
   15.8193    9.4177    9.6964 C   0  0  0  0  0  0  0  0  0  0  0  0
   14.8538    8.4262    9.8332 C   0  0  0  0  0  0  0  0  0  0  0  0
   14.4627    8.0378   11.1009 C   0  0  0  0  0  0  0  0  0  0  0  0
   13.5830    7.0108   11.2706 O   0  0  0  0  0  0  0  0  0  0  0  0
   14.9258    8.7126   12.2220 C   0  0  0  0  0  0  0  0  0  0  0  0
   15.8356    9.7541   12.0671 C   0  0  0  0  0  0  0  0  0  0  0  0
   16.2694   10.3758   13.1736 F   0  0  0  0  0  0  0  0  0  0  0  0
   17.2073   12.8446   12.1226 C   0  0  0  0  0  0  0  0  0  0  0  0
   17.8144   13.9189   12.7373 C   0  0  0  0  0  0  0  0  0  0  0  0
   19.1313   14.1933   12.6402 N   0  0  0  0  0  0  0  0  0  0  0  0
   19.9058   13.3523   11.9236 C   0  0  0  0  0  0  0  0  0  0  0  0
   21.2582   13.6866   11.9709 N   0  0  0  0  0  0  0  0  0  0  0  0
  1  2  1  0
  2  3  1  0
  3  4  2  0
  4  5  1  0
  5  6  1  0
  6  7  2  0
  7  8  1  0
  8  9  2  0
  9 10  1  0
  9 11  1  0
 11 12  2  0
 12 13  1  0
  4 14  1  0
 14 15  2  0
 15 16  1  0
 16 17  2  0
 17 18  1  0
 17  3  1  0
 12  6  1  0
M  END
>  <original ID>  (136) 
CONFZKGTKVHOIN-UHFFFAOYSA-N

>  <generation_date>  (136) 
None

>  <alias>  (136) 
None

>  <original SMILES>  (136) 
COc1c(Nc2ccc(O)cc2F)ccnc1N

>  <HIPPO ID>  (136) 
47858

>  <tags>  (136) 
[]

>  <ref_pdb>  (136) 
c0270a

>  <method>  (136) 
None

>  <ref_url>  (136) 
None

>  <inchikey>  (136) 
CONFZKGTKVHOIN-UHFFFAOYSA-N

>  <submitter_email>  (136) 
None

>  <ref_mols>  (136) 
c0935a,c1132a

>  <submitter_name>  (136) 
None

$$$$
NOWRXNAYIDISKP-UHFFFAOYSA-N
     RDKit          3D

 18 19  0  0  0  0  0  0  0  0999 V2000
   13.4090    6.3028   10.4996 C   0  0  0  0  0  0  0  0  0  0  0  0
   13.7218    7.2111   11.5519 O   0  0  0  0  0  0  0  0  0  0  0  0
   14.5991    8.2231   11.2604 C   0  0  0  0  0  0  0  0  0  0  0  0
   15.0196    8.5263    9.9745 C   0  0  0  0  0  0  0  0  0  0  0  0
   15.9855    9.5051    9.7735 C   0  0  0  0  0  0  0  0  0  0  0  0
   16.5578   10.2166   10.8362 C   0  0  0  0  0  0  0  0  0  0  0  0
   17.6468   11.0449   10.5340 N   0  0  0  0  0  0  0  0  0  0  0  0
   18.4622   11.9930   11.1877 C   0  0  0  0  0  0  0  0  0  0  0  0
   19.8516   11.9228   10.9256 C   0  0  0  0  0  0  0  0  0  0  0  0
   20.3169   10.9255   10.1275 O   0  0  0  0  0  0  0  0  0  0  0  0
   20.7392   12.8402   11.4468 C   0  0  0  0  0  0  0  0  0  0  0  0
   20.3412   13.8461   12.2276 N   0  0  0  0  0  0  0  0  0  0  0  0
   19.0160   13.9038   12.5061 C   0  0  0  0  0  0  0  0  0  0  0  0
   18.0463   13.0198   12.0299 C   0  0  0  0  0  0  0  0  0  0  0  0
   16.4093   13.3849   12.3976 Cl  0  0  0  0  0  0  0  0  0  0  0  0
   16.0207   10.0217   12.1011 C   0  0  0  0  0  0  0  0  0  0  0  0
   15.0611    9.0121   12.3316 C   0  0  0  0  0  0  0  0  0  0  0  0
   14.5641    8.8317   13.7392 C   0  0  0  0  0  0  0  0  0  0  0  0
  1  2  1  0
  2  3  1  0
  3  4  2  0
  4  5  1  0
  5  6  2  0
  6  7  1  0
  7  8  1  0
  8  9  2  0
  9 10  1  0
  9 11  1  0
 11 12  2  0
 12 13  1  0
 13 14  2  0
 14 15  1  0
  6 16  1  0
 16 17  2  0
 17 18  1  0
 17  3  1  0
 14  8  1  0
M  END
>  <original ID>  (137) 
NOWRXNAYIDISKP-UHFFFAOYSA-N

>  <generation_date>  (137) 
None

>  <alias>  (137) 
None

>  <original SMILES>  (137) 
COc1ccc(Nc2c(O)cncc2Cl)cc1C

>  <HIPPO ID>  (137) 
47910

>  <tags>  (137) 
[]

>  <ref_pdb>  (137) 
c0270a

>  <method>  (137) 
None

>  <ref_url>  (137) 
None

>  <inchikey>  (137) 
NOWRXNAYIDISKP-UHFFFAOYSA-N

>  <submitter_email>  (137) 
None

>  <ref_mols>  (137) 
c0935a,c1132a

>  <submitter_name>  (137) 
None

$$$$
UTOWXHUROHGJEA-UHFFFAOYSA-N
     RDKit          3D

 18 19  0  0  0  0  0  0  0  0999 V2000
   13.4115    6.3166   10.5266 C   0  0  0  0  0  0  0  0  0  0  0  0
   13.7438    7.2067   11.5886 O   0  0  0  0  0  0  0  0  0  0  0  0
   14.6147    8.2262   11.3049 C   0  0  0  0  0  0  0  0  0  0  0  0
   15.0139    8.5503   10.0161 C   0  0  0  0  0  0  0  0  0  0  0  0
   15.9718    9.5397    9.8145 C   0  0  0  0  0  0  0  0  0  0  0  0
   16.5621   10.2401   10.8785 C   0  0  0  0  0  0  0  0  0  0  0  0
   17.6430   11.0766   10.5663 N   0  0  0  0  0  0  0  0  0  0  0  0
   18.4971   11.9966   11.2146 C   0  0  0  0  0  0  0  0  0  0  0  0
   19.8727   11.9123   10.8887 C   0  0  0  0  0  0  0  0  0  0  0  0
   20.2859   10.9095   10.0694 O   0  0  0  0  0  0  0  0  0  0  0  0
   20.7991   12.8121   11.3726 C   0  0  0  0  0  0  0  0  0  0  0  0
   20.4546   13.8127   12.1832 N   0  0  0  0  0  0  0  0  0  0  0  0
   19.1494   13.8705   12.5427 C   0  0  0  0  0  0  0  0  0  0  0  0
   18.1450   13.0004   12.1110 C   0  0  0  0  0  0  0  0  0  0  0  0
   16.5553   13.3239   12.6634 Cl  0  0  0  0  0  0  0  0  0  0  0  0
   16.0546   10.0224   12.1505 C   0  0  0  0  0  0  0  0  0  0  0  0
   15.1062    9.0083   12.3666 C   0  0  0  0  0  0  0  0  0  0  0  0
   14.5095    8.6960   14.3628 I   0  0  0  0  0  0  0  0  0  0  0  0
  1  2  1  0
  2  3  1  0
  3  4  2  0
  4  5  1  0
  5  6  2  0
  6  7  1  0
  7  8  1  0
  8  9  2  0
  9 10  1  0
  9 11  1  0
 11 12  2  0
 12 13  1  0
 13 14  2  0
 14 15  1  0
  6 16  1  0
 16 17  2  0
 17 18  1  0
 17  3  1  0
 14  8  1  0
M  END
>  <original ID>  (138) 
UTOWXHUROHGJEA-UHFFFAOYSA-N

>  <generation_date>  (138) 
None

>  <alias>  (138) 
None

>  <original SMILES>  (138) 
COc1ccc(Nc2c(O)cncc2Cl)cc1I

>  <HIPPO ID>  (138) 
47916

>  <tags>  (138) 
[]

>  <ref_pdb>  (138) 
c0270a

>  <method>  (138) 
None

>  <ref_url>  (138) 
None

>  <inchikey>  (138) 
UTOWXHUROHGJEA-UHFFFAOYSA-N

>  <submitter_email>  (138) 
None

>  <ref_mols>  (138) 
c0935a,c1132a

>  <submitter_name>  (138) 
None

$$$$
CYSOGTMCLDJTAX-UHFFFAOYSA-N
     RDKit          3D

 18 19  0  0  0  0  0  0  0  0999 V2000
   13.7895    8.2308    9.0267 C   0  0  0  0  0  0  0  0  0  0  0  0
   14.7079    8.6453   10.1293 C   0  0  0  0  0  0  0  0  0  0  0  0
   15.6069    9.6802    9.8745 C   0  0  0  0  0  0  0  0  0  0  0  0
   16.3197   10.3129   10.9018 C   0  0  0  0  0  0  0  0  0  0  0  0
   17.1376   11.4109   10.5547 N   0  0  0  0  0  0  0  0  0  0  0  0
   18.4473   11.7184   10.9939 C   0  0  0  0  0  0  0  0  0  0  0  0
   19.5171   11.0429   10.4186 C   0  0  0  0  0  0  0  0  0  0  0  0
   20.8243   11.2727   10.6460 N   0  0  0  0  0  0  0  0  0  0  0  0
   21.1141   12.2677   11.4922 C   0  0  0  0  0  0  0  0  0  0  0  0
   20.1378   13.0164   12.1315 C   0  0  0  0  0  0  0  0  0  0  0  0
   20.5079   13.9700   13.0317 O   0  0  0  0  0  0  0  0  0  0  0  0
   18.7848   12.7475   11.8733 C   0  0  0  0  0  0  0  0  0  0  0  0
   17.4337   13.7535   12.7530 Br  0  0  0  0  0  0  0  0  0  0  0  0
   16.0422    9.9593   12.2156 C   0  0  0  0  0  0  0  0  0  0  0  0
   15.1713    8.8950   12.4991 C   0  0  0  0  0  0  0  0  0  0  0  0
   14.8007    8.6132   13.9254 C   0  0  0  0  0  0  0  0  0  0  0  0
   14.5583    8.2080   11.4427 C   0  0  0  0  0  0  0  0  0  0  0  0
   13.7251    7.1681   11.7538 O   0  0  0  0  0  0  0  0  0  0  0  0
  1  2  1  0
  2  3  2  0
  3  4  1  0
  4  5  1  0
  5  6  1  0
  6  7  2  0
  7  8  1  0
  8  9  2  0
  9 10  1  0
 10 11  1  0
 10 12  2  0
 12 13  1  0
  4 14  2  0
 14 15  1  0
 15 16  1  0
 15 17  2  0
 17 18  1  0
 17  2  1  0
 12  6  1  0
M  END
>  <original ID>  (139) 
CYSOGTMCLDJTAX-UHFFFAOYSA-N

>  <generation_date>  (139) 
None

>  <alias>  (139) 
None

>  <original SMILES>  (139) 
Cc1cc(Nc2cncc(O)c2Br)cc(C)c1O

>  <HIPPO ID>  (139) 
47974

>  <tags>  (139) 
[]

>  <ref_pdb>  (139) 
c0270a

>  <method>  (139) 
None

>  <ref_url>  (139) 
None

>  <inchikey>  (139) 
CYSOGTMCLDJTAX-UHFFFAOYSA-N

>  <submitter_email>  (139) 
None

>  <ref_mols>  (139) 
c0935a,c1132a

>  <submitter_name>  (139) 
None

$$$$
RBPGXALDTPHHNN-UHFFFAOYSA-N
     RDKit          3D

 18 19  0  0  0  0  0  0  0  0999 V2000
   13.6788    6.9737   12.4201 O   0  0  0  0  0  0  0  0  0  0  0  0
   14.5183    7.9869   12.0587 C   0  0  0  0  0  0  0  0  0  0  0  0
   14.8731    8.1335   10.7421 C   0  0  0  0  0  0  0  0  0  0  0  0
   15.6075    9.2584   10.3982 C   0  0  0  0  0  0  0  0  0  0  0  0
   15.8306    9.5069    8.7518 Cl  0  0  0  0  0  0  0  0  0  0  0  0
   16.0803   10.2103   11.3231 C   0  0  0  0  0  0  0  0  0  0  0  0
   16.7767   11.3763   10.8757 N   0  0  0  0  0  0  0  0  0  0  0  0
   18.1482   11.6831   11.1088 C   0  0  0  0  0  0  0  0  0  0  0  0
   19.1295   10.9684   10.4356 C   0  0  0  0  0  0  0  0  0  0  0  0
   20.4601   11.1858   10.4891 N   0  0  0  0  0  0  0  0  0  0  0  0
   20.8734   12.2082   11.2494 C   0  0  0  0  0  0  0  0  0  0  0  0
   19.9949   12.9988   11.9673 C   0  0  0  0  0  0  0  0  0  0  0  0
   20.5331   13.9713   12.7539 O   0  0  0  0  0  0  0  0  0  0  0  0
   18.6156   12.7425   11.8898 C   0  0  0  0  0  0  0  0  0  0  0  0
   17.4100   13.8535   12.8452 Br  0  0  0  0  0  0  0  0  0  0  0  0
   15.7253   10.0330   12.6519 C   0  0  0  0  0  0  0  0  0  0  0  0
   14.9175    8.9447   12.9980 C   0  0  0  0  0  0  0  0  0  0  0  0
   14.4251    8.8830   14.2406 F   0  0  0  0  0  0  0  0  0  0  0  0
  1  2  1  0
  2  3  2  0
  3  4  1  0
  4  5  1  0
  4  6  2  0
  6  7  1  0
  7  8  1  0
  8  9  2  0
  9 10  1  0
 10 11  2  0
 11 12  1  0
 12 13  1  0
 12 14  2  0
 14 15  1  0
  6 16  1  0
 16 17  2  0
 17 18  1  0
 17  2  1  0
 14  8  1  0
M  END
>  <original ID>  (140) 
RBPGXALDTPHHNN-UHFFFAOYSA-N

>  <generation_date>  (140) 
None

>  <alias>  (140) 
None

>  <original SMILES>  (140) 
Oc1cc(Cl)c(Nc2cncc(O)c2Br)cc1F

>  <HIPPO ID>  (140) 
47980

>  <tags>  (140) 
[]

>  <ref_pdb>  (140) 
c0270a

>  <method>  (140) 
None

>  <ref_url>  (140) 
None

>  <inchikey>  (140) 
RBPGXALDTPHHNN-UHFFFAOYSA-N

>  <submitter_email>  (140) 
None

>  <ref_mols>  (140) 
c0935a,c1132a

>  <submitter_name>  (140) 
None

$$$$
JSWWNRSRVYLFKJ-UHFFFAOYSA-N
     RDKit          3D

 18 19  0  0  0  0  0  0  0  0999 V2000
   13.8109    8.2901    8.9823 C   0  0  0  0  0  0  0  0  0  0  0  0
   14.7447    8.6502   10.0903 C   0  0  0  0  0  0  0  0  0  0  0  0
   15.7600    9.5750    9.8422 C   0  0  0  0  0  0  0  0  0  0  0  0
   16.4861   10.1670   10.8800 C   0  0  0  0  0  0  0  0  0  0  0  0
   17.5671   10.9834   10.5300 N   0  0  0  0  0  0  0  0  0  0  0  0
   18.3472   11.9603   11.1795 C   0  0  0  0  0  0  0  0  0  0  0  0
   19.7414   11.9382   10.9520 C   0  0  0  0  0  0  0  0  0  0  0  0
   20.2674   10.9570   10.1733 O   0  0  0  0  0  0  0  0  0  0  0  0
   20.5724   12.8917   11.4979 C   0  0  0  0  0  0  0  0  0  0  0  0
   20.1096   13.8840   12.2621 N   0  0  0  0  0  0  0  0  0  0  0  0
   18.7748   13.8956   12.5034 C   0  0  0  0  0  0  0  0  0  0  0  0
   17.8588   12.9726   12.0039 C   0  0  0  0  0  0  0  0  0  0  0  0
   16.1820   13.2524   12.2958 Cl  0  0  0  0  0  0  0  0  0  0  0  0
   16.0730    9.9221   12.1859 C   0  0  0  0  0  0  0  0  0  0  0  0
   15.1188    8.9323   12.4650 C   0  0  0  0  0  0  0  0  0  0  0  0
   14.6923    8.7094   13.8857 C   0  0  0  0  0  0  0  0  0  0  0  0
   14.5252    8.2455   11.4032 C   0  0  0  0  0  0  0  0  0  0  0  0
   13.6643    7.2227   11.6934 O   0  0  0  0  0  0  0  0  0  0  0  0
  1  2  1  0
  2  3  2  0
  3  4  1  0
  4  5  1  0
  5  6  1  0
  6  7  2  0
  7  8  1  0
  7  9  1  0
  9 10  2  0
 10 11  1  0
 11 12  2  0
 12 13  1  0
  4 14  2  0
 14 15  1  0
 15 16  1  0
 15 17  2  0
 17 18  1  0
 17  2  1  0
 12  6  1  0
M  END
>  <original ID>  (141) 
JSWWNRSRVYLFKJ-UHFFFAOYSA-N

>  <generation_date>  (141) 
None

>  <alias>  (141) 
None

>  <original SMILES>  (141) 
Cc1cc(Nc2c(O)cncc2Cl)cc(C)c1O

>  <HIPPO ID>  (141) 
47983

>  <tags>  (141) 
[]

>  <ref_pdb>  (141) 
c0270a

>  <method>  (141) 
None

>  <ref_url>  (141) 
None

>  <inchikey>  (141) 
JSWWNRSRVYLFKJ-UHFFFAOYSA-N

>  <submitter_email>  (141) 
None

>  <ref_mols>  (141) 
c0935a,c1132a

>  <submitter_name>  (141) 
None

$$$$
GXARFPQWTQVUNV-UHFFFAOYSA-N
     RDKit          3D

 19 20  0  0  0  0  0  0  0  0999 V2000
   22.9978   12.5435   10.6034 C   0  0  0  0  0  0  0  0  0  0  0  0
   21.7908   13.0996   11.1539 O   0  0  0  0  0  0  0  0  0  0  0  0
   20.6969   12.3117   10.9430 C   0  0  0  0  0  0  0  0  0  0  0  0
   20.9534   11.2718   10.1715 N   0  0  0  0  0  0  0  0  0  0  0  0
   19.9338   10.5372    9.8116 C   0  0  0  0  0  0  0  0  0  0  0  0
   18.6535   10.6934   10.2525 C   0  0  0  0  0  0  0  0  0  0  0  0
   18.3477   11.7279   11.0996 C   0  0  0  0  0  0  0  0  0  0  0  0
   16.9829   11.8782   11.4922 N   0  0  0  0  0  0  0  0  0  0  0  0
   16.0152   10.8289   11.3421 C   0  0  0  0  0  0  0  0  0  0  0  0
   15.5735   10.4078   10.0735 C   0  0  0  0  0  0  0  0  0  0  0  0
   14.8888    9.2039    9.8897 C   0  0  0  0  0  0  0  0  0  0  0  0
   14.6196    8.4105   10.9931 C   0  0  0  0  0  0  0  0  0  0  0  0
   13.9472    7.2319   10.8523 O   0  0  0  0  0  0  0  0  0  0  0  0
   14.9907    8.8224   12.2700 C   0  0  0  0  0  0  0  0  0  0  0  0
   15.6759   10.0269   12.4322 C   0  0  0  0  0  0  0  0  0  0  0  0
   16.0869   10.3904   13.6547 F   0  0  0  0  0  0  0  0  0  0  0  0
   19.4097   12.5990   11.4415 C   0  0  0  0  0  0  0  0  0  0  0  0
   19.0927   13.6417   12.2614 O   0  0  0  0  0  0  0  0  0  0  0  0
   20.2017   14.3009   12.8621 C   0  0  0  0  0  0  0  0  0  0  0  0
  1  2  1  0
  2  3  1  0
  3  4  2  0
  4  5  1  0
  5  6  2  0
  6  7  1  0
  7  8  1  0
  8  9  1  0
  9 10  2  0
 10 11  1  0
 11 12  2  0
 12 13  1  0
 12 14  1  0
 14 15  2  0
 15 16  1  0
  7 17  2  0
 17 18  1  0
 18 19  1  0
 17  3  1  0
 15  9  1  0
M  END
>  <original ID>  (142) 
GXARFPQWTQVUNV-UHFFFAOYSA-N

>  <generation_date>  (142) 
None

>  <alias>  (142) 
None

>  <original SMILES>  (142) 
COc1nccc(Nc2ccc(O)cc2F)c1OC

>  <HIPPO ID>  (142) 
48318

>  <tags>  (142) 
[]

>  <ref_pdb>  (142) 
c0270a

>  <method>  (142) 
None

>  <ref_url>  (142) 
None

>  <inchikey>  (142) 
GXARFPQWTQVUNV-UHFFFAOYSA-N

>  <submitter_email>  (142) 
None

>  <ref_mols>  (142) 
c0935a,c1132a

>  <submitter_name>  (142) 
None

$$$$
BGXNAXOPVMIDNW-UHFFFAOYSA-N
     RDKit          3D

 19 20  0  0  0  0  0  0  0  0999 V2000
   22.6919   13.0822   10.3595 C   0  0  0  0  0  0  0  0  0  0  0  0
   21.5143   13.4209   11.1181 O   0  0  0  0  0  0  0  0  0  0  0  0
   20.5008   12.5199   10.9600 C   0  0  0  0  0  0  0  0  0  0  0  0
   20.8542   11.4569   10.2498 N   0  0  0  0  0  0  0  0  0  0  0  0
   19.9051   10.6214    9.9040 C   0  0  0  0  0  0  0  0  0  0  0  0
   18.6089   10.7031   10.3192 C   0  0  0  0  0  0  0  0  0  0  0  0
   18.2140   11.7523   11.1134 C   0  0  0  0  0  0  0  0  0  0  0  0
   16.8306   11.8523   11.4510 N   0  0  0  0  0  0  0  0  0  0  0  0
   15.9073   10.7680   11.2970 C   0  0  0  0  0  0  0  0  0  0  0  0
   15.5382   10.3182   10.0141 C   0  0  0  0  0  0  0  0  0  0  0  0
   14.8810    9.1040    9.8174 C   0  0  0  0  0  0  0  0  0  0  0  0
   14.5799    8.3211   10.9184 C   0  0  0  0  0  0  0  0  0  0  0  0
   13.9223    7.1359   10.7662 O   0  0  0  0  0  0  0  0  0  0  0  0
   14.8879    8.7546   12.2062 C   0  0  0  0  0  0  0  0  0  0  0  0
   15.5253    9.9848   12.3922 C   0  0  0  0  0  0  0  0  0  0  0  0
   15.8680   10.5238   13.9925 Cl  0  0  0  0  0  0  0  0  0  0  0  0
   19.1916   12.7241   11.4316 C   0  0  0  0  0  0  0  0  0  0  0  0
   18.7368   13.7726   12.1740 O   0  0  0  0  0  0  0  0  0  0  0  0
   19.6592   14.8032   12.4927 C   0  0  0  0  0  0  0  0  0  0  0  0
  1  2  1  0
  2  3  1  0
  3  4  2  0
  4  5  1  0
  5  6  2  0
  6  7  1  0
  7  8  1  0
  8  9  1  0
  9 10  2  0
 10 11  1  0
 11 12  2  0
 12 13  1  0
 12 14  1  0
 14 15  2  0
 15 16  1  0
  7 17  2  0
 17 18  1  0
 18 19  1  0
 17  3  1  0
 15  9  1  0
M  END
>  <original ID>  (143) 
BGXNAXOPVMIDNW-UHFFFAOYSA-N

>  <generation_date>  (143) 
None

>  <alias>  (143) 
None

>  <original SMILES>  (143) 
COc1nccc(Nc2ccc(O)cc2Cl)c1OC

>  <HIPPO ID>  (143) 
48352

>  <tags>  (143) 
[]

>  <ref_pdb>  (143) 
c0270a

>  <method>  (143) 
None

>  <ref_url>  (143) 
None

>  <inchikey>  (143) 
BGXNAXOPVMIDNW-UHFFFAOYSA-N

>  <submitter_email>  (143) 
None

>  <ref_mols>  (143) 
c0935a,c1132a

>  <submitter_name>  (143) 
None

$$$$
SFYHHSLCJUBWAB-UHFFFAOYSA-N
     RDKit          3D

 19 20  0  0  0  0  0  0  0  0999 V2000
   21.4543   11.0486   10.6070 C   0  0  0  0  0  0  0  0  0  0  0  0
   20.1078   11.3776   10.2821 O   0  0  0  0  0  0  0  0  0  0  0  0
   19.4625   12.2732   11.0948 C   0  0  0  0  0  0  0  0  0  0  0  0
   20.0055   13.4334   11.6486 C   0  0  0  0  0  0  0  0  0  0  0  0
   21.7467   14.0822   11.2587 Br  0  0  0  0  0  0  0  0  0  0  0  0
   19.2160   14.2407   12.4628 C   0  0  0  0  0  0  0  0  0  0  0  0
   17.8958   13.8862   12.6545 C   0  0  0  0  0  0  0  0  0  0  0  0
   17.3197   12.8103   12.0827 N   0  0  0  0  0  0  0  0  0  0  0  0
   18.0877   12.0125   11.3117 C   0  0  0  0  0  0  0  0  0  0  0  0
   17.5244   10.8886   10.6686 N   0  0  0  0  0  0  0  0  0  0  0  0
   16.3533   10.1303   10.8533 C   0  0  0  0  0  0  0  0  0  0  0  0
   15.7684    9.5959    9.6907 C   0  0  0  0  0  0  0  0  0  0  0  0
   14.7727    8.6429    9.7677 C   0  0  0  0  0  0  0  0  0  0  0  0
   14.1373    8.2365    8.6663 F   0  0  0  0  0  0  0  0  0  0  0  0
   14.4156    8.1099   10.9867 C   0  0  0  0  0  0  0  0  0  0  0  0
   13.5464    7.0601   11.0517 O   0  0  0  0  0  0  0  0  0  0  0  0
   14.8836    8.6909   12.1526 C   0  0  0  0  0  0  0  0  0  0  0  0
   15.7844    9.7626   12.0868 C   0  0  0  0  0  0  0  0  0  0  0  0
   16.1730   10.4894   13.5990 Cl  0  0  0  0  0  0  0  0  0  0  0  0
  1  2  1  0
  2  3  1  0
  3  4  2  0
  4  5  1  0
  4  6  1  0
  6  7  2  0
  7  8  1  0
  8  9  2  0
  9 10  1  0
 10 11  1  0
 11 12  2  0
 12 13  1  0
 13 14  1  0
 13 15  2  0
 15 16  1  0
 15 17  1  0
 17 18  2  0
 18 19  1  0
  9  3  1  0
 18 11  1  0
M  END
>  <original ID>  (144) 
SFYHHSLCJUBWAB-UHFFFAOYSA-N

>  <generation_date>  (144) 
None

>  <alias>  (144) 
None

>  <original SMILES>  (144) 
COc1c(Br)ccnc1Nc1cc(F)c(O)cc1Cl

>  <HIPPO ID>  (144) 
48740

>  <tags>  (144) 
[]

>  <ref_pdb>  (144) 
c0270a

>  <method>  (144) 
None

>  <ref_url>  (144) 
None

>  <inchikey>  (144) 
SFYHHSLCJUBWAB-UHFFFAOYSA-N

>  <submitter_email>  (144) 
None

>  <ref_mols>  (144) 
c0935a,c1132a

>  <submitter_name>  (144) 
None

$$$$
NHRIRNQIKNVROL-UHFFFAOYSA-N
     RDKit          3D

 19 20  0  0  0  0  0  0  0  0999 V2000
   21.5703   11.4766   10.5243 C   0  0  0  0  0  0  0  0  0  0  0  0
   20.1489   11.3933   10.4379 O   0  0  0  0  0  0  0  0  0  0  0  0
   19.4374   12.2863   11.1945 C   0  0  0  0  0  0  0  0  0  0  0  0
   19.9658   13.3927   11.8462 C   0  0  0  0  0  0  0  0  0  0  0  0
   19.2287   14.2526   12.5832 N   0  0  0  0  0  0  0  0  0  0  0  0
   17.9129   13.9648   12.7078 C   0  0  0  0  0  0  0  0  0  0  0  0
   17.1409   14.9373   13.5042 C   0  0  0  0  0  0  0  0  0  0  0  0
   15.9347   14.8310   13.6853 O   0  0  0  0  0  0  0  0  0  0  0  0
   17.2870   12.8765   12.1184 C   0  0  0  0  0  0  0  0  0  0  0  0
   18.0517   12.0386   11.3100 C   0  0  0  0  0  0  0  0  0  0  0  0
   17.4895   10.9595   10.6027 N   0  0  0  0  0  0  0  0  0  0  0  0
   16.4134   10.0884   10.8241 C   0  0  0  0  0  0  0  0  0  0  0  0
   15.8649    9.4367    9.7094 C   0  0  0  0  0  0  0  0  0  0  0  0
   14.8919    8.4525    9.8479 C   0  0  0  0  0  0  0  0  0  0  0  0
   14.4884    8.0796   11.1160 C   0  0  0  0  0  0  0  0  0  0  0  0
   13.6077    7.0538   11.2888 O   0  0  0  0  0  0  0  0  0  0  0  0
   14.9447    8.7655   12.2336 C   0  0  0  0  0  0  0  0  0  0  0  0
   15.8650    9.7981   12.0761 C   0  0  0  0  0  0  0  0  0  0  0  0
   16.3038   10.4202   13.1802 F   0  0  0  0  0  0  0  0  0  0  0  0
  1  2  1  0
  2  3  1  0
  3  4  2  0
  4  5  1  0
  5  6  2  0
  6  7  1  0
  7  8  2  0
  6  9  1  0
  9 10  2  0
 10 11  1  0
 11 12  1  0
 12 13  2  0
 13 14  1  0
 14 15  2  0
 15 16  1  0
 15 17  1  0
 17 18  2  0
 18 19  1  0
 10  3  1  0
 18 12  1  0
M  END
>  <original ID>  (145) 
NHRIRNQIKNVROL-UHFFFAOYSA-N

>  <generation_date>  (145) 
None

>  <alias>  (145) 
None

>  <original SMILES>  (145) 
COc1cnc(C=O)cc1Nc1ccc(O)cc1F

>  <HIPPO ID>  (145) 
48869

>  <tags>  (145) 
[]

>  <ref_pdb>  (145) 
c0270a

>  <method>  (145) 
None

>  <ref_url>  (145) 
None

>  <inchikey>  (145) 
NHRIRNQIKNVROL-UHFFFAOYSA-N

>  <submitter_email>  (145) 
None

>  <ref_mols>  (145) 
c0935a,c1132a

>  <submitter_name>  (145) 
None

$$$$
DPKPCEZBWMJDJH-UHFFFAOYSA-N
     RDKit          3D

 19 20  0  0  0  0  0  0  0  0999 V2000
   21.3930   11.2224   10.3940 C   0  0  0  0  0  0  0  0  0  0  0  0
   19.9881   11.3156   10.5336 O   0  0  0  0  0  0  0  0  0  0  0  0
   19.4065   12.2788   11.3094 C   0  0  0  0  0  0  0  0  0  0  0  0
   19.9960   13.3001   12.0604 C   0  0  0  0  0  0  0  0  0  0  0  0
   21.8541   13.5321   12.3894 Br  0  0  0  0  0  0  0  0  0  0  0  0
   19.1847   14.2137   12.7371 C   0  0  0  0  0  0  0  0  0  0  0  0
   17.8180   14.0446   12.7028 C   0  0  0  0  0  0  0  0  0  0  0  0
   17.2153   13.0331   12.0566 N   0  0  0  0  0  0  0  0  0  0  0  0
   17.9922   12.1629   11.3712 C   0  0  0  0  0  0  0  0  0  0  0  0
   17.3791   11.0804   10.7113 N   0  0  0  0  0  0  0  0  0  0  0  0
   16.3142   10.2159   11.0015 C   0  0  0  0  0  0  0  0  0  0  0  0
   15.6877    9.6068    9.9005 C   0  0  0  0  0  0  0  0  0  0  0  0
   14.7056    8.6236   10.0516 C   0  0  0  0  0  0  0  0  0  0  0  0
   13.7945    8.3277    8.9096 C   0  0  0  0  0  0  0  0  0  0  0  0
   14.4710    8.1225   11.3191 C   0  0  0  0  0  0  0  0  0  0  0  0
   13.6370    7.0691   11.5544 O   0  0  0  0  0  0  0  0  0  0  0  0
   14.9779    8.7864   12.4240 C   0  0  0  0  0  0  0  0  0  0  0  0
   15.8212    9.9013   12.2766 C   0  0  0  0  0  0  0  0  0  0  0  0
   16.0902   10.7019   13.5111 C   0  0  0  0  0  0  0  0  0  0  0  0
  1  2  1  0
  2  3  1  0
  3  4  2  0
  4  5  1  0
  4  6  1  0
  6  7  2  0
  7  8  1  0
  8  9  2  0
  9 10  1  0
 10 11  1  0
 11 12  2  0
 12 13  1  0
 13 14  1  0
 13 15  2  0
 15 16  1  0
 15 17  1  0
 17 18  2  0
 18 19  1  0
  9  3  1  0
 18 11  1  0
M  END
>  <original ID>  (146) 
DPKPCEZBWMJDJH-UHFFFAOYSA-N

>  <generation_date>  (146) 
None

>  <alias>  (146) 
None

>  <original SMILES>  (146) 
COc1c(Br)ccnc1Nc1cc(C)c(O)cc1C

>  <HIPPO ID>  (146) 
48878

>  <tags>  (146) 
[]

>  <ref_pdb>  (146) 
c0270a

>  <method>  (146) 
None

>  <ref_url>  (146) 
None

>  <inchikey>  (146) 
DPKPCEZBWMJDJH-UHFFFAOYSA-N

>  <submitter_email>  (146) 
None

>  <ref_mols>  (146) 
c0935a,c1132a

>  <submitter_name>  (146) 
None

$$$$
GTJNRHSYXGMPNY-UHFFFAOYSA-N
     RDKit          3D

 19 20  0  0  0  0  0  0  0  0999 V2000
   13.4367    6.0104   10.6442 C   0  0  0  0  0  0  0  0  0  0  0  0
   13.7137    6.9733   11.6547 O   0  0  0  0  0  0  0  0  0  0  0  0
   14.5658    7.9883   11.3204 C   0  0  0  0  0  0  0  0  0  0  0  0
   14.9596    8.3136   10.0348 C   0  0  0  0  0  0  0  0  0  0  0  0
   15.8182    9.3898    9.8253 C   0  0  0  0  0  0  0  0  0  0  0  0
   16.2879   10.1855   10.8885 C   0  0  0  0  0  0  0  0  0  0  0  0
   17.0860   11.3177   10.5501 N   0  0  0  0  0  0  0  0  0  0  0  0
   18.3774   11.6578   11.0389 C   0  0  0  0  0  0  0  0  0  0  0  0
   19.3810   10.8752   10.5985 N   0  0  0  0  0  0  0  0  0  0  0  0
   20.6547   11.2847   10.7383 C   0  0  0  0  0  0  0  0  0  0  0  0
   20.9890   12.5000   11.2739 C   0  0  0  0  0  0  0  0  0  0  0  0
   19.9568   13.3323   11.7044 C   0  0  0  0  0  0  0  0  0  0  0  0
   20.5134   15.0921   12.1535 Br  0  0  0  0  0  0  0  0  0  0  0  0
   18.6194   12.9053   11.6423 C   0  0  0  0  0  0  0  0  0  0  0  0
   17.5095   13.6393   11.9659 O   0  0  0  0  0  0  0  0  0  0  0  0
   17.5347   14.3728   13.1808 C   0  0  0  0  0  0  0  0  0  0  0  0
   15.7917    9.9199   12.1723 C   0  0  0  0  0  0  0  0  0  0  0  0
   16.0460   11.0064   13.5620 S   0  0  0  0  0  0  0  0  0  0  0  0
   14.9802    8.7954   12.3828 C   0  0  0  0  0  0  0  0  0  0  0  0
  1  2  1  0
  2  3  1  0
  3  4  2  0
  4  5  1  0
  5  6  2  0
  6  7  1  0
  7  8  1  0
  8  9  2  0
  9 10  1  0
 10 11  2  0
 11 12  1  0
 12 13  1  0
 12 14  2  0
 14 15  1  0
 15 16  1  0
  6 17  1  0
 17 18  1  0
 17 19  2  0
 19  3  1  0
 14  8  1  0
M  END
>  <original ID>  (147) 
GTJNRHSYXGMPNY-UHFFFAOYSA-N

>  <generation_date>  (147) 
None

>  <alias>  (147) 
None

>  <original SMILES>  (147) 
COc1ccc(Nc2nccc(Br)c2OC)c(S)c1

>  <HIPPO ID>  (147) 
48895

>  <tags>  (147) 
[]

>  <ref_pdb>  (147) 
c0270a

>  <method>  (147) 
None

>  <ref_url>  (147) 
None

>  <inchikey>  (147) 
GTJNRHSYXGMPNY-UHFFFAOYSA-N

>  <submitter_email>  (147) 
None

>  <ref_mols>  (147) 
c0935a,c1132a

>  <submitter_name>  (147) 
None

$$$$
VDXAEUCCZDAKOY-UHFFFAOYSA-N
     RDKit          3D

 19 20  0  0  0  0  0  0  0  0999 V2000
   21.5307   11.4531   10.4640 C   0  0  0  0  0  0  0  0  0  0  0  0
   20.1168   11.4341   10.5502 O   0  0  0  0  0  0  0  0  0  0  0  0
   19.4300   12.3261   11.3263 C   0  0  0  0  0  0  0  0  0  0  0  0
   19.8926   13.3789   12.1206 C   0  0  0  0  0  0  0  0  0  0  0  0
   21.6971   13.7809   12.5406 Br  0  0  0  0  0  0  0  0  0  0  0  0
   18.9801   14.1982   12.7929 C   0  0  0  0  0  0  0  0  0  0  0  0
   17.6408   13.8913   12.7369 C   0  0  0  0  0  0  0  0  0  0  0  0
   17.1625   12.8337   12.0680 N   0  0  0  0  0  0  0  0  0  0  0  0
   18.0345   12.0814   11.3517 C   0  0  0  0  0  0  0  0  0  0  0  0
   17.5283   10.9724   10.6494 N   0  0  0  0  0  0  0  0  0  0  0  0
   16.4276   10.1559   10.9194 C   0  0  0  0  0  0  0  0  0  0  0  0
   15.7461    9.5525    9.8667 C   0  0  0  0  0  0  0  0  0  0  0  0
   14.7380    8.6216   10.1127 C   0  0  0  0  0  0  0  0  0  0  0  0
   13.8125    8.2236    9.0116 C   0  0  0  0  0  0  0  0  0  0  0  0
   14.4981    8.2047   11.4213 C   0  0  0  0  0  0  0  0  0  0  0  0
   13.6198    7.1675   11.5843 O   0  0  0  0  0  0  0  0  0  0  0  0
   15.0696    8.8838   12.4995 C   0  0  0  0  0  0  0  0  0  0  0  0
   14.6852    8.6350   13.9263 C   0  0  0  0  0  0  0  0  0  0  0  0
   15.9948    9.8994   12.2230 C   0  0  0  0  0  0  0  0  0  0  0  0
  1  2  1  0
  2  3  1  0
  3  4  2  0
  4  5  1  0
  4  6  1  0
  6  7  2  0
  7  8  1  0
  8  9  2  0
  9 10  1  0
 10 11  1  0
 11 12  2  0
 12 13  1  0
 13 14  1  0
 13 15  2  0
 15 16  1  0
 15 17  1  0
 17 18  1  0
 17 19  2  0
  9  3  1  0
 19 11  1  0
M  END
>  <original ID>  (148) 
VDXAEUCCZDAKOY-UHFFFAOYSA-N

>  <generation_date>  (148) 
None

>  <alias>  (148) 
None

>  <original SMILES>  (148) 
COc1c(Br)ccnc1Nc1cc(C)c(O)c(C)c1

>  <HIPPO ID>  (148) 
48908

>  <tags>  (148) 
[]

>  <ref_pdb>  (148) 
c0270a

>  <method>  (148) 
None

>  <ref_url>  (148) 
None

>  <inchikey>  (148) 
VDXAEUCCZDAKOY-UHFFFAOYSA-N

>  <submitter_email>  (148) 
None

>  <ref_mols>  (148) 
c0935a,c1132a

>  <submitter_name>  (148) 
None

$$$$
ZEWYZTDLRHDPND-UHFFFAOYSA-N
     RDKit          3D

 19 20  0  0  0  0  0  0  0  0999 V2000
   21.4622   11.2146   10.5265 C   0  0  0  0  0  0  0  0  0  0  0  0
   20.0573   11.3954   10.4482 O   0  0  0  0  0  0  0  0  0  0  0  0
   19.4433   12.3030   11.2660 C   0  0  0  0  0  0  0  0  0  0  0  0
   18.0440   12.1152   11.3591 C   0  0  0  0  0  0  0  0  0  0  0  0
   17.4374   11.0650   10.6408 N   0  0  0  0  0  0  0  0  0  0  0  0
   16.3924   10.1871   10.9403 C   0  0  0  0  0  0  0  0  0  0  0  0
   15.7027    9.5954    9.8844 C   0  0  0  0  0  0  0  0  0  0  0  0
   14.7191    8.6370   10.1194 C   0  0  0  0  0  0  0  0  0  0  0  0
   13.8043    8.2313    9.0125 C   0  0  0  0  0  0  0  0  0  0  0  0
   14.4944    8.2011   11.4227 C   0  0  0  0  0  0  0  0  0  0  0  0
   13.6415    7.1441   11.5863 O   0  0  0  0  0  0  0  0  0  0  0  0
   15.0492    8.8864   12.5055 C   0  0  0  0  0  0  0  0  0  0  0  0
   14.6957    8.5856   13.9303 C   0  0  0  0  0  0  0  0  0  0  0  0
   15.9849    9.8972   12.2433 C   0  0  0  0  0  0  0  0  0  0  0  0
   17.2818   12.9538   12.1740 C   0  0  0  0  0  0  0  0  0  0  0  0
   17.9167   13.9928   12.8194 C   0  0  0  0  0  0  0  0  0  0  0  0
   19.2425   14.2065   12.7517 N   0  0  0  0  0  0  0  0  0  0  0  0
   19.9843   13.3511   12.0034 C   0  0  0  0  0  0  0  0  0  0  0  0
   21.6559   13.7372   12.1113 Cl  0  0  0  0  0  0  0  0  0  0  0  0
  1  2  1  0
  2  3  1  0
  3  4  2  0
  4  5  1  0
  5  6  1  0
  6  7  2  0
  7  8  1  0
  8  9  1  0
  8 10  2  0
 10 11  1  0
 10 12  1  0
 12 13  1  0
 12 14  2  0
  4 15  1  0
 15 16  2  0
 16 17  1  0
 17 18  2  0
 18 19  1  0
 18  3  1  0
 14  6  1  0
M  END
>  <original ID>  (149) 
ZEWYZTDLRHDPND-UHFFFAOYSA-N

>  <generation_date>  (149) 
None

>  <alias>  (149) 
None

>  <original SMILES>  (149) 
COc1c(Nc2cc(C)c(O)c(C)c2)ccnc1Cl

>  <HIPPO ID>  (149) 
48909

>  <tags>  (149) 
[]

>  <ref_pdb>  (149) 
c0270a

>  <method>  (149) 
None

>  <ref_url>  (149) 
None

>  <inchikey>  (149) 
ZEWYZTDLRHDPND-UHFFFAOYSA-N

>  <submitter_email>  (149) 
None

>  <ref_mols>  (149) 
c0935a,c1132a

>  <submitter_name>  (149) 
None

$$$$
GMRFKXKFTGSXQD-UHFFFAOYSA-N
     RDKit          3D

 19 20  0  0  0  0  0  0  0  0999 V2000
   17.5859   14.2565   13.6952 C   0  0  0  0  0  0  0  0  0  0  0  0
   17.4347   13.9784   12.3102 O   0  0  0  0  0  0  0  0  0  0  0  0
   18.3017   13.0331   11.8238 C   0  0  0  0  0  0  0  0  0  0  0  0
   19.5965   13.3787   11.4503 C   0  0  0  0  0  0  0  0  0  0  0  0
   20.1452   15.1521   11.5472 Br  0  0  0  0  0  0  0  0  0  0  0  0
   20.4858   12.4905   10.8722 C   0  0  0  0  0  0  0  0  0  0  0  0
   20.0029   11.2524   10.6044 C   0  0  0  0  0  0  0  0  0  0  0  0
   18.7413   10.8857   10.9038 N   0  0  0  0  0  0  0  0  0  0  0  0
   17.8710   11.7576   11.4813 C   0  0  0  0  0  0  0  0  0  0  0  0
   16.5852   11.2893   11.7689 N   0  0  0  0  0  0  0  0  0  0  0  0
   15.4963   12.2331   12.0025 C   0  0  0  0  0  0  0  0  0  0  0  0
   16.0234   10.0616   11.3593 C   0  0  0  0  0  0  0  0  0  0  0  0
   15.8085    9.7584   10.0182 C   0  0  0  0  0  0  0  0  0  0  0  0
   15.0187    8.6716    9.6686 C   0  0  0  0  0  0  0  0  0  0  0  0
   14.4777    7.8575   10.6580 C   0  0  0  0  0  0  0  0  0  0  0  0
   13.6856    6.8073   10.2919 O   0  0  0  0  0  0  0  0  0  0  0  0
   14.6969    8.1273   12.0093 C   0  0  0  0  0  0  0  0  0  0  0  0
   14.1111    7.3030   13.1115 C   0  0  0  0  0  0  0  0  0  0  0  0
   15.4825    9.2289   12.3459 C   0  0  0  0  0  0  0  0  0  0  0  0
  1  2  1  0
  2  3  1  0
  3  4  2  0
  4  5  1  0
  4  6  1  0
  6  7  2  0
  7  8  1  0
  8  9  2  0
  9 10  1  0
 10 11  1  0
 10 12  1  0
 12 13  2  0
 13 14  1  0
 14 15  2  0
 15 16  1  0
 15 17  1  0
 17 18  1  0
 17 19  2  0
  9  3  1  0
 19 12  1  0
M  END
>  <original ID>  (150) 
GMRFKXKFTGSXQD-UHFFFAOYSA-N

>  <generation_date>  (150) 
None

>  <alias>  (150) 
None

>  <original SMILES>  (150) 
COc1c(Br)ccnc1N(C)c1ccc(O)c(C)c1

>  <HIPPO ID>  (150) 
48912

>  <tags>  (150) 
[]

>  <ref_pdb>  (150) 
c0270a

>  <method>  (150) 
None

>  <ref_url>  (150) 
None

>  <inchikey>  (150) 
GMRFKXKFTGSXQD-UHFFFAOYSA-N

>  <submitter_email>  (150) 
None

>  <ref_mols>  (150) 
c0935a,c1132a

>  <submitter_name>  (150) 
None

$$$$
SFHJYCYXVCWHDV-UHFFFAOYSA-N
     RDKit          3D

 19 20  0  0  0  0  0  0  0  0999 V2000
   13.4323    6.0813   10.6840 C   0  0  0  0  0  0  0  0  0  0  0  0
   13.7021    7.0568   11.6853 O   0  0  0  0  0  0  0  0  0  0  0  0
   14.5713    8.0643   11.3595 C   0  0  0  0  0  0  0  0  0  0  0  0
   14.9455    8.3668   10.0562 C   0  0  0  0  0  0  0  0  0  0  0  0
   15.8217    9.4185    9.8084 C   0  0  0  0  0  0  0  0  0  0  0  0
   16.3593   10.1842   10.8510 C   0  0  0  0  0  0  0  0  0  0  0  0
   17.1705   11.2977   10.5293 N   0  0  0  0  0  0  0  0  0  0  0  0
   18.4551   11.6251   11.0283 C   0  0  0  0  0  0  0  0  0  0  0  0
   19.4626   10.8251   10.6374 N   0  0  0  0  0  0  0  0  0  0  0  0
   20.7406   11.2521   10.7247 C   0  0  0  0  0  0  0  0  0  0  0  0
   21.0838   12.5031   11.1608 C   0  0  0  0  0  0  0  0  0  0  0  0
   20.0473   13.3410   11.5498 C   0  0  0  0  0  0  0  0  0  0  0  0
   20.4903   15.1494   11.8885 Br  0  0  0  0  0  0  0  0  0  0  0  0
   18.7192   12.8946   11.5451 C   0  0  0  0  0  0  0  0  0  0  0  0
   17.6887   13.7513   11.8170 O   0  0  0  0  0  0  0  0  0  0  0  0
   17.3243   13.7395   13.1869 C   0  0  0  0  0  0  0  0  0  0  0  0
   15.9249    9.9309   12.1467 C   0  0  0  0  0  0  0  0  0  0  0  0
   15.0368    8.8726   12.4147 C   0  0  0  0  0  0  0  0  0  0  0  0
   14.5670    8.6956   13.8312 C   0  0  0  0  0  0  0  0  0  0  0  0
  1  2  1  0
  2  3  1  0
  3  4  2  0
  4  5  1  0
  5  6  2  0
  6  7  1  0
  7  8  1  0
  8  9  2  0
  9 10  1  0
 10 11  2  0
 11 12  1  0
 12 13  1  0
 12 14  2  0
 14 15  1  0
 15 16  1  0
  6 17  1  0
 17 18  2  0
 18 19  1  0
 18  3  1  0
 14  8  1  0
M  END
>  <original ID>  (151) 
SFHJYCYXVCWHDV-UHFFFAOYSA-N

>  <generation_date>  (151) 
None

>  <alias>  (151) 
None

>  <original SMILES>  (151) 
COc1ccc(Nc2nccc(Br)c2OC)cc1C

>  <HIPPO ID>  (151) 
48914

>  <tags>  (151) 
[]

>  <ref_pdb>  (151) 
c0270a

>  <method>  (151) 
None

>  <ref_url>  (151) 
None

>  <inchikey>  (151) 
SFHJYCYXVCWHDV-UHFFFAOYSA-N

>  <submitter_email>  (151) 
None

>  <ref_mols>  (151) 
c0935a,c1132a

>  <submitter_name>  (151) 
None

$$$$
FSUZLGKFAQBMEH-UHFFFAOYSA-N
     RDKit          3D

 19 20  0  0  0  0  0  0  0  0999 V2000
   13.2153    6.0736   11.1451 C   0  0  0  0  0  0  0  0  0  0  0  0
   13.6794    7.0573   12.0547 O   0  0  0  0  0  0  0  0  0  0  0  0
   14.5325    8.0215   11.5924 C   0  0  0  0  0  0  0  0  0  0  0  0
   14.8567    8.2058   10.2523 C   0  0  0  0  0  0  0  0  0  0  0  0
   15.7211    9.2374    9.8839 C   0  0  0  0  0  0  0  0  0  0  0  0
   16.3096   10.0796   10.8403 C   0  0  0  0  0  0  0  0  0  0  0  0
   17.1535   11.1187   10.3925 N   0  0  0  0  0  0  0  0  0  0  0  0
   18.3597   11.5744   10.9676 C   0  0  0  0  0  0  0  0  0  0  0  0
   19.4608   10.8860   10.6039 N   0  0  0  0  0  0  0  0  0  0  0  0
   20.6830   11.4180   10.7964 C   0  0  0  0  0  0  0  0  0  0  0  0
   20.8686   12.6760   11.3071 C   0  0  0  0  0  0  0  0  0  0  0  0
   19.7327   13.3922   11.6701 C   0  0  0  0  0  0  0  0  0  0  0  0
   19.9719   15.2324   12.0455 Br  0  0  0  0  0  0  0  0  0  0  0  0
   18.4558   12.8221   11.5831 C   0  0  0  0  0  0  0  0  0  0  0  0
   17.3222   13.5482   11.8332 O   0  0  0  0  0  0  0  0  0  0  0  0
   17.0148   13.6338   13.2178 C   0  0  0  0  0  0  0  0  0  0  0  0
   15.9232    9.9474   12.1661 C   0  0  0  0  0  0  0  0  0  0  0  0
   15.0488    8.9234   12.5397 C   0  0  0  0  0  0  0  0  0  0  0  0
   14.5041    8.8395   14.5689 I   0  0  0  0  0  0  0  0  0  0  0  0
  1  2  1  0
  2  3  1  0
  3  4  2  0
  4  5  1  0
  5  6  2  0
  6  7  1  0
  7  8  1  0
  8  9  2  0
  9 10  1  0
 10 11  2  0
 11 12  1  0
 12 13  1  0
 12 14  2  0
 14 15  1  0
 15 16  1  0
  6 17  1  0
 17 18  2  0
 18 19  1  0
 18  3  1  0
 14  8  1  0
M  END
>  <original ID>  (152) 
FSUZLGKFAQBMEH-UHFFFAOYSA-N

>  <generation_date>  (152) 
None

>  <alias>  (152) 
None

>  <original SMILES>  (152) 
COc1ccc(Nc2nccc(Br)c2OC)cc1I

>  <HIPPO ID>  (152) 
48918

>  <tags>  (152) 
[]

>  <ref_pdb>  (152) 
c0270a

>  <method>  (152) 
None

>  <ref_url>  (152) 
None

>  <inchikey>  (152) 
FSUZLGKFAQBMEH-UHFFFAOYSA-N

>  <submitter_email>  (152) 
None

>  <ref_mols>  (152) 
c0935a,c1132a

>  <submitter_name>  (152) 
None

$$$$
UDJDAWJOWAPAJB-UHFFFAOYSA-N
     RDKit          3D

 19 20  0  0  0  0  0  0  0  0999 V2000
   13.6890    8.6585    8.1155 O   0  0  0  0  0  0  0  0  0  0  0  0
   13.9537    8.0609    9.1367 C   0  0  0  0  0  0  0  0  0  0  0  0
   13.6875    6.7500    9.2992 O   0  0  0  0  0  0  0  0  0  0  0  0
   14.7191    8.6027   10.2589 C   0  0  0  0  0  0  0  0  0  0  0  0
   15.5465    9.6907    9.9915 C   0  0  0  0  0  0  0  0  0  0  0  0
   16.2605   10.3164   11.0198 C   0  0  0  0  0  0  0  0  0  0  0  0
   17.0378   11.4505   10.6965 N   0  0  0  0  0  0  0  0  0  0  0  0
   18.3791   11.7392   11.0565 C   0  0  0  0  0  0  0  0  0  0  0  0
   19.4019   11.0235   10.4513 C   0  0  0  0  0  0  0  0  0  0  0  0
   20.7190   11.2909   10.5347 N   0  0  0  0  0  0  0  0  0  0  0  0
   21.0646   12.4009   11.2019 C   0  0  0  0  0  0  0  0  0  0  0  0
   20.1351   13.2164   11.8221 C   0  0  0  0  0  0  0  0  0  0  0  0
   20.5865   14.3626   12.4064 O   0  0  0  0  0  0  0  0  0  0  0  0
   18.7801   12.8583   11.7879 C   0  0  0  0  0  0  0  0  0  0  0  0
   17.5120   13.9098   12.7324 Br  0  0  0  0  0  0  0  0  0  0  0  0
   16.0557    9.8922   12.3307 C   0  0  0  0  0  0  0  0  0  0  0  0
   15.2514    8.7781   12.5977 C   0  0  0  0  0  0  0  0  0  0  0  0
   14.6069    8.1179   11.5567 C   0  0  0  0  0  0  0  0  0  0  0  0
   13.8182    7.0489   11.8794 O   0  0  0  0  0  0  0  0  0  0  0  0
  1  2  2  0
  2  3  1  0
  2  4  1  0
  4  5  2  0
  5  6  1  0
  6  7  1  0
  7  8  1  0
  8  9  2  0
  9 10  1  0
 10 11  2  0
 11 12  1  0
 12 13  1  0
 12 14  2  0
 14 15  1  0
  6 16  2  0
 16 17  1  0
 17 18  2  0
 18 19  1  0
 18  4  1  0
 14  8  1  0
M  END
>  <original ID>  (153) 
UDJDAWJOWAPAJB-UHFFFAOYSA-N

>  <generation_date>  (153) 
None

>  <alias>  (153) 
None

>  <original SMILES>  (153) 
O=C(O)c1cc(Nc2cncc(O)c2Br)ccc1O

>  <HIPPO ID>  (153) 
48984

>  <tags>  (153) 
[]

>  <ref_pdb>  (153) 
c0270a

>  <method>  (153) 
None

>  <ref_url>  (153) 
None

>  <inchikey>  (153) 
UDJDAWJOWAPAJB-UHFFFAOYSA-N

>  <submitter_email>  (153) 
None

>  <ref_mols>  (153) 
c0935a,c1132a

>  <submitter_name>  (153) 
None

$$$$
XMFUGUPIRWBISI-UHFFFAOYSA-N
     RDKit          3D

 19 20  0  0  0  0  0  0  0  0999 V2000
   16.8638   11.0825   13.8006 O   0  0  0  0  0  0  0  0  0  0  0  0
   15.7423   10.8077   13.3655 N   0  0  0  0  0  4  0  0  0  0  0  0
   14.6731   11.1733   13.8722 O   0  0  0  0  0  1  0  0  0  0  0  0
   15.6574    9.8996   12.2453 C   0  0  0  0  0  0  0  0  0  0  0  0
   14.8965    8.7385   12.4452 C   0  0  0  0  0  0  0  0  0  0  0  0
   14.5659    7.9605   11.3474 C   0  0  0  0  0  0  0  0  0  0  0  0
   13.7306    6.8909   11.4576 O   0  0  0  0  0  0  0  0  0  0  0  0
   15.0110    8.3029   10.0836 C   0  0  0  0  0  0  0  0  0  0  0  0
   15.8318    9.4187    9.9104 C   0  0  0  0  0  0  0  0  0  0  0  0
   16.1754   10.2495   10.9939 C   0  0  0  0  0  0  0  0  0  0  0  0
   16.9050   11.4422   10.7355 N   0  0  0  0  0  0  0  0  0  0  0  0
   18.2703   11.7206   11.0533 C   0  0  0  0  0  0  0  0  0  0  0  0
   19.2655   10.9694   10.4475 C   0  0  0  0  0  0  0  0  0  0  0  0
   20.5915   11.2102   10.4894 N   0  0  0  0  0  0  0  0  0  0  0  0
   20.9809   12.3284   11.1167 C   0  0  0  0  0  0  0  0  0  0  0  0
   20.0850   13.1843   11.7287 C   0  0  0  0  0  0  0  0  0  0  0  0
   20.5753   14.3369   12.2692 O   0  0  0  0  0  0  0  0  0  0  0  0
   18.7186   12.8613   11.7313 C   0  0  0  0  0  0  0  0  0  0  0  0
   17.5198   14.0113   12.6593 Br  0  0  0  0  0  0  0  0  0  0  0  0
  1  2  2  0
  2  3  1  0
  2  4  1  0
  4  5  2  0
  5  6  1  0
  6  7  1  0
  6  8  2  0
  8  9  1  0
  9 10  2  0
 10 11  1  0
 11 12  1  0
 12 13  2  0
 13 14  1  0
 14 15  2  0
 15 16  1  0
 16 17  1  0
 16 18  2  0
 18 19  1  0
 10  4  1  0
 18 12  1  0
M  CHG  2   2   1   3  -1
M  END
>  <original ID>  (154) 
XMFUGUPIRWBISI-UHFFFAOYSA-N

>  <generation_date>  (154) 
None

>  <alias>  (154) 
None

>  <original SMILES>  (154) 
O=[N+]([O-])c1cc(O)ccc1Nc1cncc(O)c1Br

>  <HIPPO ID>  (154) 
48985

>  <tags>  (154) 
[]

>  <ref_pdb>  (154) 
c0270a

>  <method>  (154) 
None

>  <ref_url>  (154) 
None

>  <inchikey>  (154) 
XMFUGUPIRWBISI-UHFFFAOYSA-N

>  <submitter_email>  (154) 
None

>  <ref_mols>  (154) 
c0935a,c1132a

>  <submitter_name>  (154) 
None

$$$$
PXWPITWNJQEOKT-UHFFFAOYSA-N
     RDKit          3D

 19 20  0  0  0  0  0  0  0  0999 V2000
   13.3170    6.6715    9.4126 O   0  0  0  0  0  0  0  0  0  0  0  0
   13.9068    7.7317    9.3387 C   0  0  0  0  0  0  0  0  0  0  0  0
   13.8715    8.4451    8.2065 O   0  0  0  0  0  0  0  0  0  0  0  0
   14.7221    8.4053   10.3633 C   0  0  0  0  0  0  0  0  0  0  0  0
   15.6687    9.3752   10.0081 C   0  0  0  0  0  0  0  0  0  0  0  0
   16.3998   10.0560   10.9870 C   0  0  0  0  0  0  0  0  0  0  0  0
   17.4169   10.9255   10.5693 N   0  0  0  0  0  0  0  0  0  0  0  0
   18.1944   11.9188   11.2048 C   0  0  0  0  0  0  0  0  0  0  0  0
   19.5826   11.9437   10.9395 C   0  0  0  0  0  0  0  0  0  0  0  0
   20.1258   10.9733   10.1599 O   0  0  0  0  0  0  0  0  0  0  0  0
   20.3951   12.9272   11.4624 C   0  0  0  0  0  0  0  0  0  0  0  0
   19.9201   13.8985   12.2475 N   0  0  0  0  0  0  0  0  0  0  0  0
   18.5958   13.8529   12.5401 C   0  0  0  0  0  0  0  0  0  0  0  0
   17.6991   12.8974   12.0669 C   0  0  0  0  0  0  0  0  0  0  0  0
   16.0298   13.0637   12.4777 Cl  0  0  0  0  0  0  0  0  0  0  0  0
   16.0760    9.8274   12.3259 C   0  0  0  0  0  0  0  0  0  0  0  0
   15.1786    8.8239   12.6906 C   0  0  0  0  0  0  0  0  0  0  0  0
   14.5394    8.0838   11.7050 C   0  0  0  0  0  0  0  0  0  0  0  0
   13.6835    7.0833   12.0649 O   0  0  0  0  0  0  0  0  0  0  0  0
  1  2  2  0
  2  3  1  0
  2  4  1  0
  4  5  2  0
  5  6  1  0
  6  7  1  0
  7  8  1  0
  8  9  2  0
  9 10  1  0
  9 11  1  0
 11 12  2  0
 12 13  1  0
 13 14  2  0
 14 15  1  0
  6 16  2  0
 16 17  1  0
 17 18  2  0
 18 19  1  0
 18  4  1  0
 14  8  1  0
M  END
>  <original ID>  (155) 
PXWPITWNJQEOKT-UHFFFAOYSA-N

>  <generation_date>  (155) 
None

>  <alias>  (155) 
None

>  <original SMILES>  (155) 
O=C(O)c1cc(Nc2c(O)cncc2Cl)ccc1O

>  <HIPPO ID>  (155) 
48989

>  <tags>  (155) 
[]

>  <ref_pdb>  (155) 
c0270a

>  <method>  (155) 
None

>  <ref_url>  (155) 
None

>  <inchikey>  (155) 
PXWPITWNJQEOKT-UHFFFAOYSA-N

>  <submitter_email>  (155) 
None

>  <ref_mols>  (155) 
c0935a,c1132a

>  <submitter_name>  (155) 
None

$$$$
XUNKJRFQUCHSSZ-UHFFFAOYSA-N
     RDKit          3D

 19 20  0  0  0  0  0  0  0  0999 V2000
   13.4456    6.6098   12.6274 C   0  0  0  0  0  0  0  0  0  0  0  0
   13.6339    7.3592   11.4453 O   0  0  0  0  0  0  0  0  0  0  0  0
   14.5317    8.3913   11.3973 C   0  0  0  0  0  0  0  0  0  0  0  0
   14.8228    8.8168   10.1003 C   0  0  0  0  0  0  0  0  0  0  0  0
   13.7862    8.4097    8.7931 Cl  0  0  0  0  0  0  0  0  0  0  0  0
   15.8721    9.6853    9.8444 C   0  0  0  0  0  0  0  0  0  0  0  0
   16.5913   10.2617   10.8883 C   0  0  0  0  0  0  0  0  0  0  0  0
   17.7435   10.9809   10.5659 N   0  0  0  0  0  0  0  0  0  0  0  0
   18.5479   11.9604   11.1754 C   0  0  0  0  0  0  0  0  0  0  0  0
   19.9283   11.9523   10.8924 C   0  0  0  0  0  0  0  0  0  0  0  0
   20.4319   10.9535   10.1216 O   0  0  0  0  0  0  0  0  0  0  0  0
   20.7689   12.9279   11.3875 C   0  0  0  0  0  0  0  0  0  0  0  0
   20.3285   13.9203   12.1691 N   0  0  0  0  0  0  0  0  0  0  0  0
   19.0135   13.8965   12.4914 C   0  0  0  0  0  0  0  0  0  0  0  0
   18.1039   12.9501   12.0399 C   0  0  0  0  0  0  0  0  0  0  0  0
   16.8226   13.0626   12.4051 F   0  0  0  0  0  0  0  0  0  0  0  0
   16.1043   10.0825   12.1772 C   0  0  0  0  0  0  0  0  0  0  0  0
   15.1023    9.1295   12.4400 C   0  0  0  0  0  0  0  0  0  0  0  0
   14.5804    9.0365   14.0865 Cl  0  0  0  0  0  0  0  0  0  0  0  0
  1  2  1  0
  2  3  1  0
  3  4  2  0
  4  5  1  0
  4  6  1  0
  6  7  2  0
  7  8  1  0
  8  9  1  0
  9 10  2  0
 10 11  1  0
 10 12  1  0
 12 13  2  0
 13 14  1  0
 14 15  2  0
 15 16  1  0
  7 17  1  0
 17 18  2  0
 18 19  1  0
 18  3  1  0
 15  9  1  0
M  END
>  <original ID>  (156) 
XUNKJRFQUCHSSZ-UHFFFAOYSA-N

>  <generation_date>  (156) 
None

>  <alias>  (156) 
None

>  <original SMILES>  (156) 
COc1c(Cl)cc(Nc2c(O)cncc2F)cc1Cl

>  <HIPPO ID>  (156) 
49013

>  <tags>  (156) 
[]

>  <ref_pdb>  (156) 
c0270a

>  <method>  (156) 
None

>  <ref_url>  (156) 
None

>  <inchikey>  (156) 
XUNKJRFQUCHSSZ-UHFFFAOYSA-N

>  <submitter_email>  (156) 
None

>  <ref_mols>  (156) 
c0935a,c1132a

>  <submitter_name>  (156) 
None

$$$$
SLTGBAXZYXCCRB-UHFFFAOYSA-N
     RDKit          3D

 19 20  0  0  0  0  0  0  0  0999 V2000
   13.0823    6.3536   10.7362 C   0  0  0  0  0  0  0  0  0  0  0  0
   13.6300    7.1401   11.7886 O   0  0  0  0  0  0  0  0  0  0  0  0
   14.5251    8.1158   11.4388 C   0  0  0  0  0  0  0  0  0  0  0  0
   14.9326    8.3425   10.1369 C   0  0  0  0  0  0  0  0  0  0  0  0
   15.8914    9.3074    9.8766 C   0  0  0  0  0  0  0  0  0  0  0  0
   16.2321    9.4266    8.5689 O   0  0  0  0  0  0  0  0  0  0  0  0
   16.5056   10.0619   10.8803 C   0  0  0  0  0  0  0  0  0  0  0  0
   17.6278   10.8364   10.5459 N   0  0  0  0  0  0  0  0  0  0  0  0
   18.3594   11.8557   11.1880 C   0  0  0  0  0  0  0  0  0  0  0  0
   19.7387   11.9589   10.9141 C   0  0  0  0  0  0  0  0  0  0  0  0
   20.3280   10.9966   10.1569 O   0  0  0  0  0  0  0  0  0  0  0  0
   20.4912   12.9990   11.4172 C   0  0  0  0  0  0  0  0  0  0  0  0
   19.9609   13.9526   12.1923 N   0  0  0  0  0  0  0  0  0  0  0  0
   18.6483   13.8213   12.5055 C   0  0  0  0  0  0  0  0  0  0  0  0
   17.8230   12.8050   12.0466 C   0  0  0  0  0  0  0  0  0  0  0  0
   16.5375   12.7792   12.4242 F   0  0  0  0  0  0  0  0  0  0  0  0
   15.9881    9.9390   12.1649 C   0  0  0  0  0  0  0  0  0  0  0  0
   15.0252    8.9583   12.4462 C   0  0  0  0  0  0  0  0  0  0  0  0
   14.4403    8.8107   14.2512 Br  0  0  0  0  0  0  0  0  0  0  0  0
  1  2  1  0
  2  3  1  0
  3  4  2  0
  4  5  1  0
  5  6  1  0
  5  7  2  0
  7  8  1  0
  8  9  1  0
  9 10  2  0
 10 11  1  0
 10 12  1  0
 12 13  2  0
 13 14  1  0
 14 15  2  0
 15 16  1  0
  7 17  1  0
 17 18  2  0
 18 19  1  0
 18  3  1  0
 15  9  1  0
M  END
>  <original ID>  (157) 
SLTGBAXZYXCCRB-UHFFFAOYSA-N

>  <generation_date>  (157) 
None

>  <alias>  (157) 
None

>  <original SMILES>  (157) 
COc1cc(O)c(Nc2c(O)cncc2F)cc1Br

>  <HIPPO ID>  (157) 
49018

>  <tags>  (157) 
[]

>  <ref_pdb>  (157) 
c0270a

>  <method>  (157) 
None

>  <ref_url>  (157) 
None

>  <inchikey>  (157) 
SLTGBAXZYXCCRB-UHFFFAOYSA-N

>  <submitter_email>  (157) 
None

>  <ref_mols>  (157) 
c0935a,c1132a

>  <submitter_name>  (157) 
None

$$$$
UHDJPNFZXJTKBN-UHFFFAOYSA-N
     RDKit          3D

 19 20  0  0  0  0  0  0  0  0999 V2000
   13.2863    5.9065   11.3833 C   0  0  0  0  0  0  0  0  0  0  0  0
   13.7213    6.8130   12.3987 O   0  0  0  0  0  0  0  0  0  0  0  0
   14.5312    7.8417   12.0175 C   0  0  0  0  0  0  0  0  0  0  0  0
   14.7844    8.1835   10.7185 C   0  0  0  0  0  0  0  0  0  0  0  0
   15.5080    9.3464   10.4750 C   0  0  0  0  0  0  0  0  0  0  0  0
   15.3004    9.9904    8.7550 Br  0  0  0  0  0  0  0  0  0  0  0  0
   16.1582   10.1478   11.4374 C   0  0  0  0  0  0  0  0  0  0  0  0
   17.0046   11.1734   10.9292 N   0  0  0  0  0  0  0  0  0  0  0  0
   18.0421   12.0076   11.4189 C   0  0  0  0  0  0  0  0  0  0  0  0
   19.3584   11.8189   10.9480 C   0  0  0  0  0  0  0  0  0  0  0  0
   19.6019   10.7931   10.0995 O   0  0  0  0  0  0  0  0  0  0  0  0
   20.3922   12.6684   11.3010 C   0  0  0  0  0  0  0  0  0  0  0  0
   20.2047   13.7268   12.0946 N   0  0  0  0  0  0  0  0  0  0  0  0
   18.9443   13.9073   12.5600 C   0  0  0  0  0  0  0  0  0  0  0  0
   17.8567   13.0930   12.2582 C   0  0  0  0  0  0  0  0  0  0  0  0
   16.6491   13.4343   12.7173 F   0  0  0  0  0  0  0  0  0  0  0  0
   15.7735    9.8499   12.7388 C   0  0  0  0  0  0  0  0  0  0  0  0
   16.0754   10.9741   14.2234 Br  0  0  0  0  0  0  0  0  0  0  0  0
   15.0012    8.6921   13.0227 C   0  0  0  0  0  0  0  0  0  0  0  0
  1  2  1  0
  2  3  1  0
  3  4  2  0
  4  5  1  0
  5  6  1  0
  5  7  2  0
  7  8  1  0
  8  9  1  0
  9 10  2  0
 10 11  1  0
 10 12  1  0
 12 13  2  0
 13 14  1  0
 14 15  2  0
 15 16  1  0
  7 17  1  0
 17 18  1  0
 17 19  2  0
 19  3  1  0
 15  9  1  0
M  END
>  <original ID>  (158) 
UHDJPNFZXJTKBN-UHFFFAOYSA-N

>  <generation_date>  (158) 
None

>  <alias>  (158) 
None

>  <original SMILES>  (158) 
COc1cc(Br)c(Nc2c(O)cncc2F)c(Br)c1

>  <HIPPO ID>  (158) 
49019

>  <tags>  (158) 
[]

>  <ref_pdb>  (158) 
c0270a

>  <method>  (158) 
None

>  <ref_url>  (158) 
None

>  <inchikey>  (158) 
UHDJPNFZXJTKBN-UHFFFAOYSA-N

>  <submitter_email>  (158) 
None

>  <ref_mols>  (158) 
c0935a,c1132a

>  <submitter_name>  (158) 
None

$$$$
QWZKUKBPSIIZHQ-UHFFFAOYSA-N
     RDKit          3D

 19 20  0  0  0  0  0  0  0  0999 V2000
   16.9825   11.1659   10.7465 O   0  0  0  0  0  0  0  0  0  0  0  0
   15.8582   10.7340   10.4434 N   0  0  0  0  0  4  0  0  0  0  0  0
   15.1003   11.1665    9.5688 O   0  0  0  0  0  1  0  0  0  0  0  0
   15.3774    9.6289   11.2158 C   0  0  0  0  0  0  0  0  0  0  0  0
   15.5680    8.3611   10.6646 C   0  0  0  0  0  0  0  0  0  0  0  0
   15.1969    7.2431   11.3985 C   0  0  0  0  0  0  0  0  0  0  0  0
   14.6887    7.4118   12.6787 C   0  0  0  0  0  0  0  0  0  0  0  0
   14.3414    6.2878   13.3654 O   0  0  0  0  0  0  0  0  0  0  0  0
   14.4741    8.6840   13.2143 C   0  0  0  0  0  0  0  0  0  0  0  0
   14.7411    9.8350   12.4490 C   0  0  0  0  0  0  0  0  0  0  0  0
   14.1822   11.0897   12.8660 N   0  0  0  0  0  0  0  0  0  0  0  0
   14.8873   12.3187   12.8756 C   0  0  0  0  0  0  0  0  0  0  0  0
   14.3091   13.5303   12.5456 C   0  0  0  0  0  0  0  0  0  0  0  0
   14.9583   14.7182   12.6362 N   0  0  0  0  0  0  0  0  0  0  0  0
   16.2763   14.6849   12.9141 C   0  0  0  0  0  0  0  0  0  0  0  0
   16.9337   13.5319   13.2434 C   0  0  0  0  0  0  0  0  0  0  0  0
   18.2827   13.5649   13.3376 O   0  0  0  0  0  0  0  0  0  0  0  0
   16.1554   12.4050   13.4301 C   0  0  0  0  0  0  0  0  0  0  0  0
   16.4837   11.1751   14.8365 Br  0  0  0  0  0  0  0  0  0  0  0  0
  1  2  2  0
  2  3  1  0
  2  4  1  0
  4  5  2  0
  5  6  1  0
  6  7  2  0
  7  8  1  0
  7  9  1  0
  9 10  2  0
 10 11  1  0
 11 12  1  0
 12 13  2  0
 13 14  1  0
 14 15  2  0
 15 16  1  0
 16 17  1  0
 16 18  2  0
 18 19  1  0
 10  4  1  0
 18 12  1  0
M  CHG  2   2   1   3  -1
M  END
>  <original ID>  (159) 
QWZKUKBPSIIZHQ-UHFFFAOYSA-N

>  <generation_date>  (159) 
None

>  <alias>  (159) 
None

>  <original SMILES>  (159) 
O=[N+]([O-])c1ccc(O)cc1Nc1cncc(O)c1Br

>  <HIPPO ID>  (159) 
49024

>  <tags>  (159) 
[]

>  <ref_pdb>  (159) 
c0270a

>  <method>  (159) 
None

>  <ref_url>  (159) 
None

>  <inchikey>  (159) 
QWZKUKBPSIIZHQ-UHFFFAOYSA-N

>  <submitter_email>  (159) 
None

>  <ref_mols>  (159) 
c0935a,c1132a

>  <submitter_name>  (159) 
None

$$$$
ZQUBSMVUIDMQBS-UHFFFAOYSA-N
     RDKit          3D

 19 20  0  0  0  0  0  0  0  0999 V2000
   13.1320    6.2994   10.6911 C   0  0  0  0  0  0  0  0  0  0  0  0
   13.6321    7.1066   11.7534 O   0  0  0  0  0  0  0  0  0  0  0  0
   14.5251    8.0903   11.4197 C   0  0  0  0  0  0  0  0  0  0  0  0
   14.9226    8.3441   10.1200 C   0  0  0  0  0  0  0  0  0  0  0  0
   15.8692    9.3234    9.8692 C   0  0  0  0  0  0  0  0  0  0  0  0
   16.2005    9.4607    8.5614 O   0  0  0  0  0  0  0  0  0  0  0  0
   16.4780   10.0757   10.8782 C   0  0  0  0  0  0  0  0  0  0  0  0
   17.5630   10.9015   10.5335 N   0  0  0  0  0  0  0  0  0  0  0  0
   18.2949   11.9178   11.1922 C   0  0  0  0  0  0  0  0  0  0  0  0
   19.6921   11.9482   10.9687 C   0  0  0  0  0  0  0  0  0  0  0  0
   20.2539   10.9680   10.2121 O   0  0  0  0  0  0  0  0  0  0  0  0
   20.4855   12.9424   11.4978 C   0  0  0  0  0  0  0  0  0  0  0  0
   19.9801   13.9294   12.2423 N   0  0  0  0  0  0  0  0  0  0  0  0
   18.6434   13.8981   12.4726 C   0  0  0  0  0  0  0  0  0  0  0  0
   17.7621   12.9372   11.9799 C   0  0  0  0  0  0  0  0  0  0  0  0
   16.0745   13.1785   12.2450 Cl  0  0  0  0  0  0  0  0  0  0  0  0
   15.9927    9.9012   12.1695 C   0  0  0  0  0  0  0  0  0  0  0  0
   15.0333    8.9125   12.4393 C   0  0  0  0  0  0  0  0  0  0  0  0
   14.4549    8.7362   14.2431 Br  0  0  0  0  0  0  0  0  0  0  0  0
  1  2  1  0
  2  3  1  0
  3  4  2  0
  4  5  1  0
  5  6  1  0
  5  7  2  0
  7  8  1  0
  8  9  1  0
  9 10  2  0
 10 11  1  0
 10 12  1  0
 12 13  2  0
 13 14  1  0
 14 15  2  0
 15 16  1  0
  7 17  1  0
 17 18  2  0
 18 19  1  0
 18  3  1  0
 15  9  1  0
M  END
>  <original ID>  (160) 
ZQUBSMVUIDMQBS-UHFFFAOYSA-N

>  <generation_date>  (160) 
None

>  <alias>  (160) 
None

>  <original SMILES>  (160) 
COc1cc(O)c(Nc2c(O)cncc2Cl)cc1Br

>  <HIPPO ID>  (160) 
49031

>  <tags>  (160) 
[]

>  <ref_pdb>  (160) 
c0270a

>  <method>  (160) 
None

>  <ref_url>  (160) 
None

>  <inchikey>  (160) 
ZQUBSMVUIDMQBS-UHFFFAOYSA-N

>  <submitter_email>  (160) 
None

>  <ref_mols>  (160) 
c0935a,c1132a

>  <submitter_name>  (160) 
None

$$$$
YICQXPXFAMTMDY-UHFFFAOYSA-N
     RDKit          3D

 19 20  0  0  0  0  0  0  0  0999 V2000
   13.0985    6.2849   10.6947 C   0  0  0  0  0  0  0  0  0  0  0  0
   13.6730    6.9941   11.7893 O   0  0  0  0  0  0  0  0  0  0  0  0
   14.5576    7.9956   11.4880 C   0  0  0  0  0  0  0  0  0  0  0  0
   14.9825    8.2679   10.1972 C   0  0  0  0  0  0  0  0  0  0  0  0
   15.8173    9.3468    9.9480 C   0  0  0  0  0  0  0  0  0  0  0  0
   16.1120    9.5163    8.6342 O   0  0  0  0  0  0  0  0  0  0  0  0
   16.2596   10.1903   10.9720 C   0  0  0  0  0  0  0  0  0  0  0  0
   16.9743   11.3761   10.6944 N   0  0  0  0  0  0  0  0  0  0  0  0
   18.3164   11.6833   11.0319 C   0  0  0  0  0  0  0  0  0  0  0  0
   19.3468   10.9845   10.4246 C   0  0  0  0  0  0  0  0  0  0  0  0
   20.6595   11.2815   10.4818 N   0  0  0  0  0  0  0  0  0  0  0  0
   20.9875   12.4155   11.1155 C   0  0  0  0  0  0  0  0  0  0  0  0
   20.0465   13.2250   11.7237 C   0  0  0  0  0  0  0  0  0  0  0  0
   20.4722   14.4091   12.2408 O   0  0  0  0  0  0  0  0  0  0  0  0
   18.7042   12.8276   11.7309 C   0  0  0  0  0  0  0  0  0  0  0  0
   17.4360   13.8509   12.7065 Br  0  0  0  0  0  0  0  0  0  0  0  0
   15.8585    9.9083   12.2752 C   0  0  0  0  0  0  0  0  0  0  0  0
   15.0077    8.8258   12.5286 C   0  0  0  0  0  0  0  0  0  0  0  0
   14.4038    8.6016   14.3168 Br  0  0  0  0  0  0  0  0  0  0  0  0
  1  2  1  0
  2  3  1  0
  3  4  2  0
  4  5  1  0
  5  6  1  0
  5  7  2  0
  7  8  1  0
  8  9  1  0
  9 10  2  0
 10 11  1  0
 11 12  2  0
 12 13  1  0
 13 14  1  0
 13 15  2  0
 15 16  1  0
  7 17  1  0
 17 18  2  0
 18 19  1  0
 18  3  1  0
 15  9  1  0
M  END
>  <original ID>  (161) 
YICQXPXFAMTMDY-UHFFFAOYSA-N

>  <generation_date>  (161) 
None

>  <alias>  (161) 
None

>  <original SMILES>  (161) 
COc1cc(O)c(Nc2cncc(O)c2Br)cc1Br

>  <HIPPO ID>  (161) 
49032

>  <tags>  (161) 
[]

>  <ref_pdb>  (161) 
c0270a

>  <method>  (161) 
None

>  <ref_url>  (161) 
None

>  <inchikey>  (161) 
YICQXPXFAMTMDY-UHFFFAOYSA-N

>  <submitter_email>  (161) 
None

>  <ref_mols>  (161) 
c0935a,c1132a

>  <submitter_name>  (161) 
None

$$$$
GWSJNAOYIIZHGD-UHFFFAOYSA-N
     RDKit          3D

 19 20  0  0  0  0  0  0  0  0999 V2000
   13.5110    6.2047   10.6154 C   0  0  0  0  0  0  0  0  0  0  0  0
   13.6790    7.2273   11.5920 O   0  0  0  0  0  0  0  0  0  0  0  0
   14.5327    8.2461   11.2678 C   0  0  0  0  0  0  0  0  0  0  0  0
   14.8847    8.6380    9.9905 C   0  0  0  0  0  0  0  0  0  0  0  0
   14.2671    8.1387    8.9166 F   0  0  0  0  0  0  0  0  0  0  0  0
   15.8683    9.5973    9.7923 C   0  0  0  0  0  0  0  0  0  0  0  0
   16.5076   10.2325   10.8694 C   0  0  0  0  0  0  0  0  0  0  0  0
   17.6083   11.0448   10.5696 N   0  0  0  0  0  0  0  0  0  0  0  0
   18.4660   11.9647   11.2132 C   0  0  0  0  0  0  0  0  0  0  0  0
   19.8376   11.8848   10.8707 C   0  0  0  0  0  0  0  0  0  0  0  0
   20.2431   10.8853   10.0447 O   0  0  0  0  0  0  0  0  0  0  0  0
   20.7685   12.7831   11.3467 C   0  0  0  0  0  0  0  0  0  0  0  0
   20.4319   13.7804   12.1624 N   0  0  0  0  0  0  0  0  0  0  0  0
   19.1321   13.8325   12.5430 C   0  0  0  0  0  0  0  0  0  0  0  0
   18.1249   12.9582   12.1251 C   0  0  0  0  0  0  0  0  0  0  0  0
   16.5482   13.2482   12.7298 Cl  0  0  0  0  0  0  0  0  0  0  0  0
   16.0046    9.9941   12.1396 C   0  0  0  0  0  0  0  0  0  0  0  0
   15.0341    9.0059   12.3263 C   0  0  0  0  0  0  0  0  0  0  0  0
   14.5745    8.7920   13.5689 F   0  0  0  0  0  0  0  0  0  0  0  0
  1  2  1  0
  2  3  1  0
  3  4  2  0
  4  5  1  0
  4  6  1  0
  6  7  2  0
  7  8  1  0
  8  9  1  0
  9 10  2  0
 10 11  1  0
 10 12  1  0
 12 13  2  0
 13 14  1  0
 14 15  2  0
 15 16  1  0
  7 17  1  0
 17 18  2  0
 18 19  1  0
 18  3  1  0
 15  9  1  0
M  END
>  <original ID>  (162) 
GWSJNAOYIIZHGD-UHFFFAOYSA-N

>  <generation_date>  (162) 
None

>  <alias>  (162) 
None

>  <original SMILES>  (162) 
COc1c(F)cc(Nc2c(O)cncc2Cl)cc1F

>  <HIPPO ID>  (162) 
49035

>  <tags>  (162) 
[]

>  <ref_pdb>  (162) 
c0270a

>  <method>  (162) 
None

>  <ref_url>  (162) 
None

>  <inchikey>  (162) 
GWSJNAOYIIZHGD-UHFFFAOYSA-N

>  <submitter_email>  (162) 
None

>  <ref_mols>  (162) 
c0935a,c1132a

>  <submitter_name>  (162) 
None

$$$$
GVHSELCSIRFQJM-UHFFFAOYSA-N
     RDKit          3D

 19 20  0  0  0  0  0  0  0  0999 V2000
   13.4809    6.0651   10.6727 C   0  0  0  0  0  0  0  0  0  0  0  0
   13.6794    7.0766   11.6543 O   0  0  0  0  0  0  0  0  0  0  0  0
   14.5125    8.1052   11.3088 C   0  0  0  0  0  0  0  0  0  0  0  0
   14.7862    8.5294   10.0189 C   0  0  0  0  0  0  0  0  0  0  0  0
   14.1441    8.0134    8.9674 F   0  0  0  0  0  0  0  0  0  0  0  0
   15.6599    9.5817    9.7867 C   0  0  0  0  0  0  0  0  0  0  0  0
   16.2696   10.2647   10.8491 C   0  0  0  0  0  0  0  0  0  0  0  0
   17.0697   11.3917   10.5575 N   0  0  0  0  0  0  0  0  0  0  0  0
   18.3879   11.6898   10.9897 C   0  0  0  0  0  0  0  0  0  0  0  0
   19.4470   11.0011   10.4151 C   0  0  0  0  0  0  0  0  0  0  0  0
   20.7585   11.2518   10.5929 N   0  0  0  0  0  0  0  0  0  0  0  0
   21.0650   12.3107   11.3507 C   0  0  0  0  0  0  0  0  0  0  0  0
   20.1011   13.0989   11.9596 C   0  0  0  0  0  0  0  0  0  0  0  0
   20.4897   14.1819   12.6915 O   0  0  0  0  0  0  0  0  0  0  0  0
   18.7450   12.7735   11.7957 C   0  0  0  0  0  0  0  0  0  0  0  0
   17.4147   13.7793   12.7060 Br  0  0  0  0  0  0  0  0  0  0  0  0
   15.9176    9.9220   12.1470 C   0  0  0  0  0  0  0  0  0  0  0  0
   15.0377    8.8611   12.3606 C   0  0  0  0  0  0  0  0  0  0  0  0
   14.6324    8.6172   13.6156 F   0  0  0  0  0  0  0  0  0  0  0  0
  1  2  1  0
  2  3  1  0
  3  4  2  0
  4  5  1  0
  4  6  1  0
  6  7  2  0
  7  8  1  0
  8  9  1  0
  9 10  2  0
 10 11  1  0
 11 12  2  0
 12 13  1  0
 13 14  1  0
 13 15  2  0
 15 16  1  0
  7 17  1  0
 17 18  2  0
 18 19  1  0
 18  3  1  0
 15  9  1  0
M  END
>  <original ID>  (163) 
GVHSELCSIRFQJM-UHFFFAOYSA-N

>  <generation_date>  (163) 
None

>  <alias>  (163) 
None

>  <original SMILES>  (163) 
COc1c(F)cc(Nc2cncc(O)c2Br)cc1F

>  <HIPPO ID>  (163) 
49037

>  <tags>  (163) 
[]

>  <ref_pdb>  (163) 
c0270a

>  <method>  (163) 
None

>  <ref_url>  (163) 
None

>  <inchikey>  (163) 
GVHSELCSIRFQJM-UHFFFAOYSA-N

>  <submitter_email>  (163) 
None

>  <ref_mols>  (163) 
c0935a,c1132a

>  <submitter_name>  (163) 
None

$$$$
BVPQNKSZSQCQIT-UHFFFAOYSA-N
     RDKit          3D

 19 20  0  0  0  0  0  0  0  0999 V2000
   15.5015   11.3180    9.5985 O   0  0  0  0  0  0  0  0  0  0  0  0
   15.9382   10.1652    9.5909 N   0  0  0  0  0  4  0  0  0  0  0  0
   16.3986    9.5315    8.6413 O   0  0  0  0  0  1  0  0  0  0  0  0
   15.7263    9.4140   10.7665 C   0  0  0  0  0  0  0  0  0  0  0  0
   15.0785    8.1860   10.5191 C   0  0  0  0  0  0  0  0  0  0  0  0
   14.5285    7.5020   11.5651 C   0  0  0  0  0  0  0  0  0  0  0  0
   14.5933    8.0998   12.8113 C   0  0  0  0  0  0  0  0  0  0  0  0
   13.8711    7.5490   13.8256 O   0  0  0  0  0  0  0  0  0  0  0  0
   15.2876    9.3056   13.0545 C   0  0  0  0  0  0  0  0  0  0  0  0
   15.9278    9.9973   12.0183 C   0  0  0  0  0  0  0  0  0  0  0  0
   16.6471   11.1907   12.3152 N   0  0  0  0  0  0  0  0  0  0  0  0
   17.7890   11.8806   11.7653 C   0  0  0  0  0  0  0  0  0  0  0  0
   18.7241   11.3012   10.8939 C   0  0  0  0  0  0  0  0  0  0  0  0
   18.4553   10.1126   10.3190 O   0  0  0  0  0  0  0  0  0  0  0  0
   19.9571   11.9011   10.6494 C   0  0  0  0  0  0  0  0  0  0  0  0
   20.3012   13.1097   11.1180 N   0  0  0  0  0  0  0  0  0  0  0  0
   19.3936   13.7060   11.9119 C   0  0  0  0  0  0  0  0  0  0  0  0
   18.1630   13.1505   12.2610 C   0  0  0  0  0  0  0  0  0  0  0  0
   17.1745   14.0862   13.3105 Cl  0  0  0  0  0  0  0  0  0  0  0  0
  1  2  2  0
  2  3  1  0
  2  4  1  0
  4  5  2  0
  5  6  1  0
  6  7  2  0
  7  8  1  0
  7  9  1  0
  9 10  2  0
 10 11  1  0
 11 12  1  0
 12 13  2  0
 13 14  1  0
 13 15  1  0
 15 16  2  0
 16 17  1  0
 17 18  2  0
 18 19  1  0
 10  4  1  0
 18 12  1  0
M  CHG  2   2   1   3  -1
M  END
>  <original ID>  (164) 
BVPQNKSZSQCQIT-UHFFFAOYSA-N

>  <generation_date>  (164) 
None

>  <alias>  (164) 
None

>  <original SMILES>  (164) 
O=[N+]([O-])c1ccc(O)cc1Nc1c(O)cncc1Cl

>  <HIPPO ID>  (164) 
49042

>  <tags>  (164) 
[]

>  <ref_pdb>  (164) 
c0270a

>  <method>  (164) 
None

>  <ref_url>  (164) 
None

>  <inchikey>  (164) 
BVPQNKSZSQCQIT-UHFFFAOYSA-N

>  <submitter_email>  (164) 
None

>  <ref_mols>  (164) 
c0935a,c1132a

>  <submitter_name>  (164) 
None

$$$$
VLWAJVXEPQZWTA-UHFFFAOYSA-N
     RDKit          3D

 19 20  0  0  0  0  0  0  0  0999 V2000
   13.2694    6.4856   12.4858 C   0  0  0  0  0  0  0  0  0  0  0  0
   13.5360    7.2332   11.3178 O   0  0  0  0  0  0  0  0  0  0  0  0
   14.4581    8.2434   11.3081 C   0  0  0  0  0  0  0  0  0  0  0  0
   14.7426    8.7285   10.0272 C   0  0  0  0  0  0  0  0  0  0  0  0
   13.6893    8.4057    8.7132 Cl  0  0  0  0  0  0  0  0  0  0  0  0
   15.7877    9.6078    9.7929 C   0  0  0  0  0  0  0  0  0  0  0  0
   16.5177   10.1307   10.8506 C   0  0  0  0  0  0  0  0  0  0  0  0
   17.6305   10.9154   10.5486 N   0  0  0  0  0  0  0  0  0  0  0  0
   18.3526   11.9411   11.1870 C   0  0  0  0  0  0  0  0  0  0  0  0
   19.7493   11.9739   10.9733 C   0  0  0  0  0  0  0  0  0  0  0  0
   20.3227   11.0006   10.2169 O   0  0  0  0  0  0  0  0  0  0  0  0
   20.5320   12.9677   11.5161 C   0  0  0  0  0  0  0  0  0  0  0  0
   20.0172   13.9453   12.2666 N   0  0  0  0  0  0  0  0  0  0  0  0
   18.6815   13.9013   12.4993 C   0  0  0  0  0  0  0  0  0  0  0  0
   17.8110   12.9359   12.0003 C   0  0  0  0  0  0  0  0  0  0  0  0
   16.1193   13.1347   12.2853 Cl  0  0  0  0  0  0  0  0  0  0  0  0
   16.0694    9.8604   12.1395 C   0  0  0  0  0  0  0  0  0  0  0  0
   15.0628    8.9104   12.3764 C   0  0  0  0  0  0  0  0  0  0  0  0
   14.5838    8.7493   14.0303 Cl  0  0  0  0  0  0  0  0  0  0  0  0
  1  2  1  0
  2  3  1  0
  3  4  2  0
  4  5  1  0
  4  6  1  0
  6  7  2  0
  7  8  1  0
  8  9  1  0
  9 10  2  0
 10 11  1  0
 10 12  1  0
 12 13  2  0
 13 14  1  0
 14 15  2  0
 15 16  1  0
  7 17  1  0
 17 18  2  0
 18 19  1  0
 18  3  1  0
 15  9  1  0
M  END
>  <original ID>  (165) 
VLWAJVXEPQZWTA-UHFFFAOYSA-N

>  <generation_date>  (165) 
None

>  <alias>  (165) 
None

>  <original SMILES>  (165) 
COc1c(Cl)cc(Nc2c(O)cncc2Cl)cc1Cl

>  <HIPPO ID>  (165) 
49052

>  <tags>  (165) 
[]

>  <ref_pdb>  (165) 
c0270a

>  <method>  (165) 
None

>  <ref_url>  (165) 
None

>  <inchikey>  (165) 
VLWAJVXEPQZWTA-UHFFFAOYSA-N

>  <submitter_email>  (165) 
None

>  <ref_mols>  (165) 
c0935a,c1132a

>  <submitter_name>  (165) 
None

$$$$
SDHJMOUXAAYRPX-UHFFFAOYSA-N
     RDKit          3D

 19 20  0  0  0  0  0  0  0  0999 V2000
   13.3719    6.2204   10.7050 C   0  0  0  0  0  0  0  0  0  0  0  0
   13.6647    7.2136   11.6690 O   0  0  0  0  0  0  0  0  0  0  0  0
   14.5155    8.2280   11.3215 C   0  0  0  0  0  0  0  0  0  0  0  0
   14.7083    8.7525   10.0461 C   0  0  0  0  0  0  0  0  0  0  0  0
   13.6708    8.4682    8.7126 Cl  0  0  0  0  0  0  0  0  0  0  0  0
   15.6421    9.7561    9.8359 C   0  0  0  0  0  0  0  0  0  0  0  0
   16.3464   10.3314   10.8948 C   0  0  0  0  0  0  0  0  0  0  0  0
   17.1579   11.4419   10.6060 N   0  0  0  0  0  0  0  0  0  0  0  0
   18.4727   11.7395   11.0287 C   0  0  0  0  0  0  0  0  0  0  0  0
   19.5326   11.0515   10.4535 C   0  0  0  0  0  0  0  0  0  0  0  0
   20.8361   11.3614   10.5709 N   0  0  0  0  0  0  0  0  0  0  0  0
   21.1201   12.4959   11.2256 C   0  0  0  0  0  0  0  0  0  0  0  0
   20.1449   13.2878   11.8052 C   0  0  0  0  0  0  0  0  0  0  0  0
   20.5259   14.4798   12.3361 O   0  0  0  0  0  0  0  0  0  0  0  0
   18.8120   12.8734   11.7629 C   0  0  0  0  0  0  0  0  0  0  0  0
   17.4887   13.8736   12.6873 Br  0  0  0  0  0  0  0  0  0  0  0  0
   16.0421    9.9377   12.1864 C   0  0  0  0  0  0  0  0  0  0  0  0
   15.1338    8.8968   12.3940 C   0  0  0  0  0  0  0  0  0  0  0  0
   14.6889    8.5504   14.0315 Cl  0  0  0  0  0  0  0  0  0  0  0  0
  1  2  1  0
  2  3  1  0
  3  4  2  0
  4  5  1  0
  4  6  1  0
  6  7  2  0
  7  8  1  0
  8  9  1  0
  9 10  2  0
 10 11  1  0
 11 12  2  0
 12 13  1  0
 13 14  1  0
 13 15  2  0
 15 16  1  0
  7 17  1  0
 17 18  2  0
 18 19  1  0
 18  3  1  0
 15  9  1  0
M  END
>  <original ID>  (166) 
SDHJMOUXAAYRPX-UHFFFAOYSA-N

>  <generation_date>  (166) 
None

>  <alias>  (166) 
None

>  <original SMILES>  (166) 
COc1c(Cl)cc(Nc2cncc(O)c2Br)cc1Cl

>  <HIPPO ID>  (166) 
49053

>  <tags>  (166) 
[]

>  <ref_pdb>  (166) 
c0270a

>  <method>  (166) 
None

>  <ref_url>  (166) 
None

>  <inchikey>  (166) 
SDHJMOUXAAYRPX-UHFFFAOYSA-N

>  <submitter_email>  (166) 
None

>  <ref_mols>  (166) 
c0935a,c1132a

>  <submitter_name>  (166) 
None

$$$$
RGJVOCFBNUWRHQ-UHFFFAOYSA-N
     RDKit          3D

 19 20  0  0  0  0  0  0  0  0999 V2000
   13.2329    6.2452   13.1743 C   0  0  0  0  0  0  0  0  0  0  0  0
   13.7872    6.6530   11.9401 O   0  0  0  0  0  0  0  0  0  0  0  0
   14.5622    7.7724   11.9367 C   0  0  0  0  0  0  0  0  0  0  0  0
   14.8256    8.2160   10.6648 C   0  0  0  0  0  0  0  0  0  0  0  0
   15.4438    9.4453   10.4993 C   0  0  0  0  0  0  0  0  0  0  0  0
   15.2719   10.1424    8.7964 Br  0  0  0  0  0  0  0  0  0  0  0  0
   15.9656   10.2305   11.5433 C   0  0  0  0  0  0  0  0  0  0  0  0
   16.5458   11.5138   11.2335 N   0  0  0  0  0  0  0  0  0  0  0  0
   17.8806   11.9948   11.5008 C   0  0  0  0  0  0  0  0  0  0  0  0
   18.9686   11.4027   10.8443 C   0  0  0  0  0  0  0  0  0  0  0  0
   18.6802   10.3406   10.0734 O   0  0  0  0  0  0  0  0  0  0  0  0
   20.2516   11.9105   10.9313 C   0  0  0  0  0  0  0  0  0  0  0  0
   20.5266   13.0163   11.6320 N   0  0  0  0  0  0  0  0  0  0  0  0
   19.4772   13.6038   12.2654 C   0  0  0  0  0  0  0  0  0  0  0  0
   18.1549   13.1522   12.2222 C   0  0  0  0  0  0  0  0  0  0  0  0
   16.9396   14.0925   12.9852 Cl  0  0  0  0  0  0  0  0  0  0  0  0
   15.6678    9.7685   12.8232 C   0  0  0  0  0  0  0  0  0  0  0  0
   15.9385   10.8531   14.3494 Br  0  0  0  0  0  0  0  0  0  0  0  0
   14.9882    8.5404   13.0221 C   0  0  0  0  0  0  0  0  0  0  0  0
  1  2  1  0
  2  3  1  0
  3  4  2  0
  4  5  1  0
  5  6  1  0
  5  7  2  0
  7  8  1  0
  8  9  1  0
  9 10  2  0
 10 11  1  0
 10 12  1  0
 12 13  2  0
 13 14  1  0
 14 15  2  0
 15 16  1  0
  7 17  1  0
 17 18  1  0
 17 19  2  0
 19  3  1  0
 15  9  1  0
M  END
>  <original ID>  (167) 
RGJVOCFBNUWRHQ-UHFFFAOYSA-N

>  <generation_date>  (167) 
None

>  <alias>  (167) 
None

>  <original SMILES>  (167) 
COc1cc(Br)c(Nc2c(O)cncc2Cl)c(Br)c1

>  <HIPPO ID>  (167) 
49054

>  <tags>  (167) 
[]

>  <ref_pdb>  (167) 
c0270a

>  <method>  (167) 
None

>  <ref_url>  (167) 
None

>  <inchikey>  (167) 
RGJVOCFBNUWRHQ-UHFFFAOYSA-N

>  <submitter_email>  (167) 
None

>  <ref_mols>  (167) 
c0935a,c1132a

>  <submitter_name>  (167) 
None

$$$$
YNWFNRIFAHYPAP-UHFFFAOYSA-N
     RDKit          3D

 19 20  0  0  0  0  0  0  0  0999 V2000
   12.9782    6.0506   10.8195 C   0  0  0  0  0  0  0  0  0  0  0  0
   13.6430    6.5559   11.9758 O   0  0  0  0  0  0  0  0  0  0  0  0
   14.4547    7.6377   11.7926 C   0  0  0  0  0  0  0  0  0  0  0  0
   14.7806    8.1580   10.5594 C   0  0  0  0  0  0  0  0  0  0  0  0
   15.3754    9.4109   10.4992 C   0  0  0  0  0  0  0  0  0  0  0  0
   15.2813   10.2222    8.8421 Br  0  0  0  0  0  0  0  0  0  0  0  0
   15.7890   10.1279   11.6240 C   0  0  0  0  0  0  0  0  0  0  0  0
   16.3951   11.4122   11.5401 N   0  0  0  0  0  0  0  0  0  0  0  0
   17.7768   11.6790   11.3613 C   0  0  0  0  0  0  0  0  0  0  0  0
   18.6075   10.8782   10.5956 C   0  0  0  0  0  0  0  0  0  0  0  0
   19.9274   11.0901   10.3723 N   0  0  0  0  0  0  0  0  0  0  0  0
   20.4598   12.2228   10.8518 C   0  0  0  0  0  0  0  0  0  0  0  0
   19.7065   13.1443   11.5455 C   0  0  0  0  0  0  0  0  0  0  0  0
   20.2910   14.3156   11.9005 O   0  0  0  0  0  0  0  0  0  0  0  0
   18.3665   12.8603   11.8240 C   0  0  0  0  0  0  0  0  0  0  0  0
   17.3680   14.0937   12.8743 Br  0  0  0  0  0  0  0  0  0  0  0  0
   15.5095    9.5501   12.8621 C   0  0  0  0  0  0  0  0  0  0  0  0
   15.8000   10.5297   14.4593 Br  0  0  0  0  0  0  0  0  0  0  0  0
   14.8547    8.3141   12.9484 C   0  0  0  0  0  0  0  0  0  0  0  0
  1  2  1  0
  2  3  1  0
  3  4  2  0
  4  5  1  0
  5  6  1  0
  5  7  2  0
  7  8  1  0
  8  9  1  0
  9 10  2  0
 10 11  1  0
 11 12  2  0
 12 13  1  0
 13 14  1  0
 13 15  2  0
 15 16  1  0
  7 17  1  0
 17 18  1  0
 17 19  2  0
 19  3  1  0
 15  9  1  0
M  END
>  <original ID>  (168) 
YNWFNRIFAHYPAP-UHFFFAOYSA-N

>  <generation_date>  (168) 
None

>  <alias>  (168) 
None

>  <original SMILES>  (168) 
COc1cc(Br)c(Nc2cncc(O)c2Br)c(Br)c1

>  <HIPPO ID>  (168) 
49055

>  <tags>  (168) 
[]

>  <ref_pdb>  (168) 
c0270a

>  <method>  (168) 
None

>  <ref_url>  (168) 
None

>  <inchikey>  (168) 
YNWFNRIFAHYPAP-UHFFFAOYSA-N

>  <submitter_email>  (168) 
None

>  <ref_mols>  (168) 
c0935a,c1132a

>  <submitter_name>  (168) 
None

$$$$
QVOOIEJKYDROAH-UHFFFAOYSA-N
     RDKit          3D

 19 20  0  0  0  0  0  0  0  0999 V2000
   13.1890    6.4105   10.4958 C   0  0  0  0  0  0  0  0  0  0  0  0
   13.6280    7.2551   11.5465 O   0  0  0  0  0  0  0  0  0  0  0  0
   14.5017    8.2495   11.2040 C   0  0  0  0  0  0  0  0  0  0  0  0
   14.8842    8.6096    9.9235 C   0  0  0  0  0  0  0  0  0  0  0  0
   14.2582    8.1357    8.8446 F   0  0  0  0  0  0  0  0  0  0  0  0
   15.9208    9.5027    9.7201 C   0  0  0  0  0  0  0  0  0  0  0  0
   16.5585   10.1207   10.7965 C   0  0  0  0  0  0  0  0  0  0  0  0
   17.7209   10.8472   10.5364 N   0  0  0  0  0  0  0  0  0  0  0  0
   18.4105   11.8936   11.1685 C   0  0  0  0  0  0  0  0  0  0  0  0
   19.7960   12.0120   10.9417 C   0  0  0  0  0  0  0  0  0  0  0  0
   20.4251   11.0639   10.1978 O   0  0  0  0  0  0  0  0  0  0  0  0
   20.5138   13.0601   11.4762 C   0  0  0  0  0  0  0  0  0  0  0  0
   19.9440   13.9995   12.2422 N   0  0  0  0  0  0  0  0  0  0  0  0
   18.6248   13.8457   12.5154 C   0  0  0  0  0  0  0  0  0  0  0  0
   17.8318   12.8203   12.0243 C   0  0  0  0  0  0  0  0  0  0  0  0
   16.5297   12.7745   12.3441 F   0  0  0  0  0  0  0  0  0  0  0  0
   16.0105    9.9538   12.0630 C   0  0  0  0  0  0  0  0  0  0  0  0
   15.0127    9.0043   12.2585 C   0  0  0  0  0  0  0  0  0  0  0  0
   14.5332    8.8253   13.4992 F   0  0  0  0  0  0  0  0  0  0  0  0
  1  2  1  0
  2  3  1  0
  3  4  2  0
  4  5  1  0
  4  6  1  0
  6  7  2  0
  7  8  1  0
  8  9  1  0
  9 10  2  0
 10 11  1  0
 10 12  1  0
 12 13  2  0
 13 14  1  0
 14 15  2  0
 15 16  1  0
  7 17  1  0
 17 18  2  0
 18 19  1  0
 18  3  1  0
 15  9  1  0
M  END
>  <original ID>  (169) 
QVOOIEJKYDROAH-UHFFFAOYSA-N

>  <generation_date>  (169) 
None

>  <alias>  (169) 
None

>  <original SMILES>  (169) 
COc1c(F)cc(Nc2c(O)cncc2F)cc1F

>  <HIPPO ID>  (169) 
49061

>  <tags>  (169) 
[]

>  <ref_pdb>  (169) 
c0270a

>  <method>  (169) 
None

>  <ref_url>  (169) 
None

>  <inchikey>  (169) 
QVOOIEJKYDROAH-UHFFFAOYSA-N

>  <submitter_email>  (169) 
None

>  <ref_mols>  (169) 
c0935a,c1132a

>  <submitter_name>  (169) 
None

$$$$
XLBDRFOAZWWTKS-UHFFFAOYSA-N
     RDKit          3D

 19 20  0  0  0  0  0  0  0  0999 V2000
   19.0828   14.5967   12.7821 N   0  0  0  0  0  0  0  0  0  0  0  0
   18.8261   13.3839   12.1291 C   0  0  0  0  0  0  0  0  0  0  0  0
   19.7258   12.9730   11.2299 N   0  0  0  0  0  0  0  0  0  0  0  0
   19.5108   11.7579   10.6885 C   0  0  0  0  0  0  0  0  0  0  0  0
   18.3991   10.9693   10.9602 C   0  0  0  0  0  0  0  0  0  0  0  0
   17.4899   11.3832   11.9400 C   0  0  0  0  0  0  0  0  0  0  0  0
   16.4800   10.5303   12.5080 N   0  0  0  0  0  0  0  0  0  0  0  0
   15.7595    9.4975   11.8543 C   0  0  0  0  0  0  0  0  0  0  0  0
   15.2169    8.4396   12.5828 C   0  0  0  0  0  0  0  0  0  0  0  0
   14.4753    7.4356   11.9354 C   0  0  0  0  0  0  0  0  0  0  0  0
   13.8263    6.5182   12.7014 O   0  0  0  0  0  0  0  0  0  0  0  0
   14.3138    7.3974   10.5596 C   0  0  0  0  0  0  0  0  0  0  0  0
   14.7662    8.4722    9.8342 C   0  0  0  0  0  0  0  0  0  0  0  0
   15.4038    9.5246   10.5093 C   0  0  0  0  0  0  0  0  0  0  0  0
   15.4056   10.7743    9.8302 N   0  0  0  0  0  4  0  0  0  0  0  0
   15.1550   11.7951   10.4842 O   0  0  0  0  0  0  0  0  0  0  0  0
   15.4845   10.7221    8.6111 O   0  0  0  0  0  1  0  0  0  0  0  0
   17.7185   12.6291   12.5144 C   0  0  0  0  0  0  0  0  0  0  0  0
   16.8762   13.0960   13.4910 O   0  0  0  0  0  0  0  0  0  0  0  0
  1  2  1  0
  2  3  2  0
  3  4  1  0
  4  5  2  0
  5  6  1  0
  6  7  1  0
  7  8  1  0
  8  9  2  0
  9 10  1  0
 10 11  1  0
 10 12  2  0
 12 13  1  0
 13 14  2  0
 14 15  1  0
 15 16  2  0
 15 17  1  0
  6 18  2  0
 18 19  1  0
 18  2  1  0
 14  8  1  0
M  CHG  2  15   1  17  -1
M  END
>  <original ID>  (170) 
XLBDRFOAZWWTKS-UHFFFAOYSA-N

>  <generation_date>  (170) 
None

>  <alias>  (170) 
None

>  <original SMILES>  (170) 
Nc1nccc(Nc2cc(O)ccc2[N+](=O)[O-])c1O

>  <HIPPO ID>  (170) 
49065

>  <tags>  (170) 
[]

>  <ref_pdb>  (170) 
c0270a

>  <method>  (170) 
None

>  <ref_url>  (170) 
None

>  <inchikey>  (170) 
XLBDRFOAZWWTKS-UHFFFAOYSA-N

>  <submitter_email>  (170) 
None

>  <ref_mols>  (170) 
c0935a,c1132a

>  <submitter_name>  (170) 
None

$$$$
QDQVTTXBASQNDE-UHFFFAOYSA-N
     RDKit          3D

 19 20  0  0  0  0  0  0  0  0999 V2000
   12.9958    6.1504   11.1051 C   0  0  0  0  0  0  0  0  0  0  0  0
   13.5845    7.0506   12.0222 O   0  0  0  0  0  0  0  0  0  0  0  0
   14.4062    8.0195   11.5206 C   0  0  0  0  0  0  0  0  0  0  0  0
   14.6569    8.2988   10.1861 C   0  0  0  0  0  0  0  0  0  0  0  0
   14.0287    7.6507    9.2028 F   0  0  0  0  0  0  0  0  0  0  0  0
   15.5194    9.3226    9.8281 C   0  0  0  0  0  0  0  0  0  0  0  0
   16.1452   10.1082   10.8027 C   0  0  0  0  0  0  0  0  0  0  0  0
   17.0409   11.0813   10.3662 N   0  0  0  0  0  0  0  0  0  0  0  0
   18.0610   11.7771   11.0296 C   0  0  0  0  0  0  0  0  0  0  0  0
   17.8259   12.7759   11.9588 C   0  0  0  0  0  0  0  0  0  0  0  0
   18.9238   13.5112   12.3965 C   0  0  0  0  0  0  0  0  0  0  0  0
   20.2066   13.2948   12.0147 N   0  0  0  0  0  0  0  0  0  0  0  0
   20.4224   12.2897   11.1683 C   0  0  0  0  0  0  0  0  0  0  0  0
   21.7225   11.9383   10.8443 N   0  0  0  0  0  0  0  0  0  0  0  0
   19.3820   11.5307   10.6740 C   0  0  0  0  0  0  0  0  0  0  0  0
   19.7222   10.5852    9.7655 O   0  0  0  0  0  0  0  0  0  0  0  0
   15.8233    9.9049   12.1357 C   0  0  0  0  0  0  0  0  0  0  0  0
   14.9586    8.8737   12.4770 C   0  0  0  0  0  0  0  0  0  0  0  0
   14.5920    8.7533   13.7612 F   0  0  0  0  0  0  0  0  0  0  0  0
  1  2  1  0
  2  3  1  0
  3  4  2  0
  4  5  1  0
  4  6  1  0
  6  7  2  0
  7  8  1  0
  8  9  1  0
  9 10  2  0
 10 11  1  0
 11 12  2  0
 12 13  1  0
 13 14  1  0
 13 15  2  0
 15 16  1  0
  7 17  1  0
 17 18  2  0
 18 19  1  0
 18  3  1  0
 15  9  1  0
M  END
>  <original ID>  (171) 
QDQVTTXBASQNDE-UHFFFAOYSA-N

>  <generation_date>  (171) 
None

>  <alias>  (171) 
None

>  <original SMILES>  (171) 
COc1c(F)cc(Nc2ccnc(N)c2O)cc1F

>  <HIPPO ID>  (171) 
49067

>  <tags>  (171) 
[]

>  <ref_pdb>  (171) 
c0270a

>  <method>  (171) 
None

>  <ref_url>  (171) 
None

>  <inchikey>  (171) 
QDQVTTXBASQNDE-UHFFFAOYSA-N

>  <submitter_email>  (171) 
None

>  <ref_mols>  (171) 
c0935a,c1132a

>  <submitter_name>  (171) 
None

$$$$
VPUFIIQHKNYRDX-UHFFFAOYSA-N
     RDKit          3D

 19 20  0  0  0  0  0  0  0  0999 V2000
   21.6270   12.9861   11.0513 N   0  0  0  0  0  0  0  0  0  0  0  0
   20.2477   12.9024   11.2855 C   0  0  0  0  0  0  0  0  0  0  0  0
   19.6377   13.8893   11.9355 N   0  0  0  0  0  0  0  0  0  0  0  0
   18.3214   13.7346   12.2091 C   0  0  0  0  0  0  0  0  0  0  0  0
   17.5544   12.6623   11.8005 C   0  0  0  0  0  0  0  0  0  0  0  0
   18.1730   11.6964   11.0234 C   0  0  0  0  0  0  0  0  0  0  0  0
   17.4848   10.6415   10.4159 N   0  0  0  0  0  0  0  0  0  0  0  0
   16.3737    9.8796   10.7659 C   0  0  0  0  0  0  0  0  0  0  0  0
   15.7787    9.0778    9.7834 C   0  0  0  0  0  0  0  0  0  0  0  0
   14.8182    8.1265   10.1143 C   0  0  0  0  0  0  0  0  0  0  0  0
   14.4291    7.9960   11.4338 C   0  0  0  0  0  0  0  0  0  0  0  0
   13.5515    6.9898   11.7266 O   0  0  0  0  0  0  0  0  0  0  0  0
   14.8834    8.9164   12.3821 C   0  0  0  0  0  0  0  0  0  0  0  0
   14.3092    8.9349   13.7322 C   0  0  0  0  0  0  0  0  0  0  0  0
   14.1484    7.9290   14.3963 O   0  0  0  0  0  0  0  0  0  0  0  0
   13.8466   10.1457   14.0944 O   0  0  0  0  0  0  0  0  0  0  0  0
   15.8553    9.8553   12.0544 C   0  0  0  0  0  0  0  0  0  0  0  0
   19.5505   11.8098   10.8217 C   0  0  0  0  0  0  0  0  0  0  0  0
   20.2340   10.8643   10.1229 O   0  0  0  0  0  0  0  0  0  0  0  0
  1  2  1  0
  2  3  2  0
  3  4  1  0
  4  5  2  0
  5  6  1  0
  6  7  1  0
  7  8  1  0
  8  9  2  0
  9 10  1  0
 10 11  2  0
 11 12  1  0
 11 13  1  0
 13 14  1  0
 14 15  2  0
 14 16  1  0
 13 17  2  0
  6 18  2  0
 18 19  1  0
 18  2  1  0
 17  8  1  0
M  END
>  <original ID>  (172) 
VPUFIIQHKNYRDX-UHFFFAOYSA-N

>  <generation_date>  (172) 
None

>  <alias>  (172) 
None

>  <original SMILES>  (172) 
Nc1nccc(Nc2ccc(O)c(C(=O)O)c2)c1O

>  <HIPPO ID>  (172) 
49071

>  <tags>  (172) 
[]

>  <ref_pdb>  (172) 
c0270a

>  <method>  (172) 
None

>  <ref_url>  (172) 
None

>  <inchikey>  (172) 
VPUFIIQHKNYRDX-UHFFFAOYSA-N

>  <submitter_email>  (172) 
None

>  <ref_mols>  (172) 
c0935a,c1132a

>  <submitter_name>  (172) 
None

$$$$
PYXFNOPYYLTJAQ-UHFFFAOYSA-N
     RDKit          3D

 19 20  0  0  0  0  0  0  0  0999 V2000
   21.5806   12.8669   10.9770 N   0  0  0  0  0  0  0  0  0  0  0  0
   20.2135   12.8967   11.2842 C   0  0  0  0  0  0  0  0  0  0  0  0
   19.7048   13.9413   11.9278 N   0  0  0  0  0  0  0  0  0  0  0  0
   18.3852   13.8946   12.2375 C   0  0  0  0  0  0  0  0  0  0  0  0
   17.5143   12.8901   11.8572 C   0  0  0  0  0  0  0  0  0  0  0  0
   18.0331   11.8514   11.1090 C   0  0  0  0  0  0  0  0  0  0  0  0
   17.2587   10.8587   10.4963 N   0  0  0  0  0  0  0  0  0  0  0  0
   16.2209    9.9875   10.8354 C   0  0  0  0  0  0  0  0  0  0  0  0
   15.7286    9.2272    9.7541 C   0  0  0  0  0  0  0  0  0  0  0  0
   14.7988    8.2067    9.9221 C   0  0  0  0  0  0  0  0  0  0  0  0
   14.3841    7.8803   11.1941 C   0  0  0  0  0  0  0  0  0  0  0  0
   13.5158    6.8548   11.4055 O   0  0  0  0  0  0  0  0  0  0  0  0
   14.7703    8.6547   12.2749 C   0  0  0  0  0  0  0  0  0  0  0  0
   15.6076    9.7605   12.0672 C   0  0  0  0  0  0  0  0  0  0  0  0
   15.7243   10.6552   13.1914 N   0  0  0  0  0  4  0  0  0  0  0  0
   14.6795   11.1817   13.5974 O   0  0  0  0  0  0  0  0  0  0  0  0
   16.8282   10.8001   13.7182 O   0  0  0  0  0  1  0  0  0  0  0  0
   19.4124   11.8549   10.8706 C   0  0  0  0  0  0  0  0  0  0  0  0
   19.9896   10.8591   10.1441 O   0  0  0  0  0  0  0  0  0  0  0  0
  1  2  1  0
  2  3  2  0
  3  4  1  0
  4  5  2  0
  5  6  1  0
  6  7  1  0
  7  8  1  0
  8  9  2  0
  9 10  1  0
 10 11  2  0
 11 12  1  0
 11 13  1  0
 13 14  2  0
 14 15  1  0
 15 16  2  0
 15 17  1  0
  6 18  2  0
 18 19  1  0
 18  2  1  0
 14  8  1  0
M  CHG  2  15   1  17  -1
M  END
>  <original ID>  (173) 
PYXFNOPYYLTJAQ-UHFFFAOYSA-N

>  <generation_date>  (173) 
None

>  <alias>  (173) 
None

>  <original SMILES>  (173) 
Nc1nccc(Nc2ccc(O)cc2[N+](=O)[O-])c1O

>  <HIPPO ID>  (173) 
49076

>  <tags>  (173) 
[]

>  <ref_pdb>  (173) 
c0270a

>  <method>  (173) 
None

>  <ref_url>  (173) 
None

>  <inchikey>  (173) 
PYXFNOPYYLTJAQ-UHFFFAOYSA-N

>  <submitter_email>  (173) 
None

>  <ref_mols>  (173) 
c0935a,c1132a

>  <submitter_name>  (173) 
None

$$$$
FIAJSMWDDAQFFX-UHFFFAOYSA-N
     RDKit          3D

 19 20  0  0  0  0  0  0  0  0999 V2000
   15.1821   11.9661   10.5429 O   0  0  0  0  0  0  0  0  0  0  0  0
   15.3744   10.9560    9.8527 N   0  0  0  0  0  4  0  0  0  0  0  0
   15.4164   10.8960    8.6345 O   0  0  0  0  0  1  0  0  0  0  0  0
   15.3887    9.7348   10.5268 C   0  0  0  0  0  0  0  0  0  0  0  0
   14.6549    8.6825    9.9658 C   0  0  0  0  0  0  0  0  0  0  0  0
   14.3396    7.6206   10.7731 C   0  0  0  0  0  0  0  0  0  0  0  0
   14.7211    7.6807   12.1051 C   0  0  0  0  0  0  0  0  0  0  0  0
   14.2013    6.7053   12.8973 O   0  0  0  0  0  0  0  0  0  0  0  0
   15.5656    8.6912   12.6092 C   0  0  0  0  0  0  0  0  0  0  0  0
   15.9554    9.7527   11.7874 C   0  0  0  0  0  0  0  0  0  0  0  0
   17.1665   10.4907   12.0692 N   0  0  0  0  0  0  0  0  0  0  0  0
   17.8364   11.7407   11.7285 C   0  0  0  0  0  0  0  0  0  0  0  0
   17.6637   12.9113   12.4619 C   0  0  0  0  0  0  0  0  0  0  0  0
   16.7121   13.0292   13.4248 O   0  0  0  0  0  0  0  0  0  0  0  0
   18.5898   13.9410   12.3299 C   0  0  0  0  0  0  0  0  0  0  0  0
   19.6906   13.8895   11.5422 N   0  0  0  0  0  0  0  0  0  0  0  0
   19.8982   12.7352   10.8854 C   0  0  0  0  0  0  0  0  0  0  0  0
   19.0064   11.6788   10.9339 C   0  0  0  0  0  0  0  0  0  0  0  0
   19.3141   10.5325   10.3207 F   0  0  0  0  0  0  0  0  0  0  0  0
  1  2  2  0
  2  3  1  0
  2  4  1  0
  4  5  2  0
  5  6  1  0
  6  7  2  0
  7  8  1  0
  7  9  1  0
  9 10  2  0
 10 11  1  0
 11 12  1  0
 12 13  2  0
 13 14  1  0
 13 15  1  0
 15 16  2  0
 16 17  1  0
 17 18  2  0
 18 19  1  0
 10  4  1  0
 18 12  1  0
M  CHG  2   2   1   3  -1
M  END
>  <original ID>  (174) 
FIAJSMWDDAQFFX-UHFFFAOYSA-N

>  <generation_date>  (174) 
None

>  <alias>  (174) 
None

>  <original SMILES>  (174) 
O=[N+]([O-])c1ccc(O)cc1Nc1c(O)cncc1F

>  <HIPPO ID>  (174) 
49114

>  <tags>  (174) 
[]

>  <ref_pdb>  (174) 
c0270a

>  <method>  (174) 
None

>  <ref_url>  (174) 
None

>  <inchikey>  (174) 
FIAJSMWDDAQFFX-UHFFFAOYSA-N

>  <submitter_email>  (174) 
None

>  <ref_mols>  (174) 
c0935a,c1132a

>  <submitter_name>  (174) 
None

$$$$
CCLDCDLHVSAIBN-UHFFFAOYSA-N
     RDKit          3D

 19 20  0  0  0  0  0  0  0  0999 V2000
   13.4476    6.7442    9.5314 O   0  0  0  0  0  0  0  0  0  0  0  0
   14.0167    7.8126    9.4126 C   0  0  0  0  0  0  0  0  0  0  0  0
   13.9506    8.4851    8.2549 O   0  0  0  0  0  0  0  0  0  0  0  0
   14.8202    8.5502   10.4108 C   0  0  0  0  0  0  0  0  0  0  0  0
   15.7694    9.5061   10.0246 C   0  0  0  0  0  0  0  0  0  0  0  0
   16.4862   10.2465   10.9808 C   0  0  0  0  0  0  0  0  0  0  0  0
   17.5529   11.0431   10.5383 N   0  0  0  0  0  0  0  0  0  0  0  0
   18.4326   11.9617   11.1515 C   0  0  0  0  0  0  0  0  0  0  0  0
   19.8074   11.8804   10.8586 C   0  0  0  0  0  0  0  0  0  0  0  0
   20.2520   10.8768   10.0620 O   0  0  0  0  0  0  0  0  0  0  0  0
   20.7077   12.7960   11.3653 C   0  0  0  0  0  0  0  0  0  0  0  0
   20.3326   13.8031   12.1595 N   0  0  0  0  0  0  0  0  0  0  0  0
   19.0188   13.8584   12.4822 C   0  0  0  0  0  0  0  0  0  0  0  0
   18.0527   12.9716   12.0249 C   0  0  0  0  0  0  0  0  0  0  0  0
   16.7787   13.1674   12.3808 F   0  0  0  0  0  0  0  0  0  0  0  0
   16.1125   10.1294   12.3175 C   0  0  0  0  0  0  0  0  0  0  0  0
   15.2223    9.1292   12.7176 C   0  0  0  0  0  0  0  0  0  0  0  0
   14.6298    8.3027   11.7660 C   0  0  0  0  0  0  0  0  0  0  0  0
   13.8168    7.2823   12.1695 O   0  0  0  0  0  0  0  0  0  0  0  0
  1  2  2  0
  2  3  1  0
  2  4  1  0
  4  5  2  0
  5  6  1  0
  6  7  1  0
  7  8  1  0
  8  9  2  0
  9 10  1  0
  9 11  1  0
 11 12  2  0
 12 13  1  0
 13 14  2  0
 14 15  1  0
  6 16  2  0
 16 17  1  0
 17 18  2  0
 18 19  1  0
 18  4  1  0
 14  8  1  0
M  END
>  <original ID>  (175) 
CCLDCDLHVSAIBN-UHFFFAOYSA-N

>  <generation_date>  (175) 
None

>  <alias>  (175) 
None

>  <original SMILES>  (175) 
O=C(O)c1cc(Nc2c(O)cncc2F)ccc1O

>  <HIPPO ID>  (175) 
49124

>  <tags>  (175) 
[]

>  <ref_pdb>  (175) 
c0270a

>  <method>  (175) 
None

>  <ref_url>  (175) 
None

>  <inchikey>  (175) 
CCLDCDLHVSAIBN-UHFFFAOYSA-N

>  <submitter_email>  (175) 
None

>  <ref_mols>  (175) 
c0935a,c1132a

>  <submitter_name>  (175) 
None

$$$$
IEEUYHOUWHIERA-UHFFFAOYSA-N
     RDKit          3D

 19 20  0  0  0  0  0  0  0  0999 V2000
   16.7639   10.7972   13.8850 O   0  0  0  0  0  0  0  0  0  0  0  0
   15.7718   10.8143   13.1600 N   0  0  0  0  0  4  0  0  0  0  0  0
   14.7597   11.4777   13.3868 O   0  0  0  0  0  1  0  0  0  0  0  0
   15.7217    9.9257   12.0336 C   0  0  0  0  0  0  0  0  0  0  0  0
   14.8479    8.8366   12.1964 C   0  0  0  0  0  0  0  0  0  0  0  0
   14.5002    8.0704   11.0992 C   0  0  0  0  0  0  0  0  0  0  0  0
   13.6254    7.0419   11.2629 O   0  0  0  0  0  0  0  0  0  0  0  0
   14.9781    8.4029    9.8533 C   0  0  0  0  0  0  0  0  0  0  0  0
   15.9426    9.4014    9.7381 C   0  0  0  0  0  0  0  0  0  0  0  0
   16.4107   10.1468   10.8421 C   0  0  0  0  0  0  0  0  0  0  0  0
   17.5110   10.9719   10.5649 N   0  0  0  0  0  0  0  0  0  0  0  0
   18.2983   11.9578   11.1906 C   0  0  0  0  0  0  0  0  0  0  0  0
   19.6893   11.9481   10.9531 C   0  0  0  0  0  0  0  0  0  0  0  0
   20.2183   10.9604   10.1841 O   0  0  0  0  0  0  0  0  0  0  0  0
   20.5149   12.9221   11.4763 C   0  0  0  0  0  0  0  0  0  0  0  0
   20.0482   13.9241   12.2275 N   0  0  0  0  0  0  0  0  0  0  0  0
   18.7179   13.9177   12.4864 C   0  0  0  0  0  0  0  0  0  0  0  0
   17.8232   12.9748   11.9999 C   0  0  0  0  0  0  0  0  0  0  0  0
   16.5153   13.1274   12.2326 F   0  0  0  0  0  0  0  0  0  0  0  0
  1  2  2  0
  2  3  1  0
  2  4  1  0
  4  5  2  0
  5  6  1  0
  6  7  1  0
  6  8  2  0
  8  9  1  0
  9 10  2  0
 10 11  1  0
 11 12  1  0
 12 13  2  0
 13 14  1  0
 13 15  1  0
 15 16  2  0
 16 17  1  0
 17 18  2  0
 18 19  1  0
 10  4  1  0
 18 12  1  0
M  CHG  2   2   1   3  -1
M  END
>  <original ID>  (176) 
IEEUYHOUWHIERA-UHFFFAOYSA-N

>  <generation_date>  (176) 
None

>  <alias>  (176) 
None

>  <original SMILES>  (176) 
O=[N+]([O-])c1cc(O)ccc1Nc1c(O)cncc1F

>  <HIPPO ID>  (176) 
49125

>  <tags>  (176) 
[]

>  <ref_pdb>  (176) 
c0270a

>  <method>  (176) 
None

>  <ref_url>  (176) 
None

>  <inchikey>  (176) 
IEEUYHOUWHIERA-UHFFFAOYSA-N

>  <submitter_email>  (176) 
None

>  <ref_mols>  (176) 
c0935a,c1132a

>  <submitter_name>  (176) 
None

$$$$
OFMOEVLDJNPERK-UHFFFAOYSA-N
     RDKit          3D

 19 20  0  0  0  0  0  0  0  0999 V2000
   21.5531   11.3493   10.5219 C   0  0  0  0  0  0  0  0  0  0  0  0
   20.1319   11.3558   10.4106 O   0  0  0  0  0  0  0  0  0  0  0  0
   19.4637   12.2747   11.1772 C   0  0  0  0  0  0  0  0  0  0  0  0
   18.0803   12.0586   11.3220 C   0  0  0  0  0  0  0  0  0  0  0  0
   17.4774   10.9901   10.6359 N   0  0  0  0  0  0  0  0  0  0  0  0
   16.4119   10.1376   10.9289 C   0  0  0  0  0  0  0  0  0  0  0  0
   15.7241    9.5500    9.8674 C   0  0  0  0  0  0  0  0  0  0  0  0
   14.7145    8.6128   10.0882 C   0  0  0  0  0  0  0  0  0  0  0  0
   13.7892    8.2786    8.9654 C   0  0  0  0  0  0  0  0  0  0  0  0
   14.4790    8.1817   11.3915 C   0  0  0  0  0  0  0  0  0  0  0  0
   13.6158    7.1526   11.6489 O   0  0  0  0  0  0  0  0  0  0  0  0
   15.0474    8.8545   12.4752 C   0  0  0  0  0  0  0  0  0  0  0  0
   14.6214    8.5933   13.8892 C   0  0  0  0  0  0  0  0  0  0  0  0
   15.9815    9.8671   12.2260 C   0  0  0  0  0  0  0  0  0  0  0  0
   17.3450   12.9071   12.1502 C   0  0  0  0  0  0  0  0  0  0  0  0
   17.9915   13.9808   12.7353 C   0  0  0  0  0  0  0  0  0  0  0  0
   19.3032   14.2419   12.5766 N   0  0  0  0  0  0  0  0  0  0  0  0
   20.0140   13.3781   11.8160 C   0  0  0  0  0  0  0  0  0  0  0  0
   21.3190   13.6494   11.6638 F   0  0  0  0  0  0  0  0  0  0  0  0
  1  2  1  0
  2  3  1  0
  3  4  2  0
  4  5  1  0
  5  6  1  0
  6  7  2  0
  7  8  1  0
  8  9  1  0
  8 10  2  0
 10 11  1  0
 10 12  1  0
 12 13  1  0
 12 14  2  0
  4 15  1  0
 15 16  2  0
 16 17  1  0
 17 18  2  0
 18 19  1  0
 18  3  1  0
 14  6  1  0
M  END
>  <original ID>  (177) 
OFMOEVLDJNPERK-UHFFFAOYSA-N

>  <generation_date>  (177) 
None

>  <alias>  (177) 
None

>  <original SMILES>  (177) 
COc1c(Nc2cc(C)c(O)c(C)c2)ccnc1F

>  <HIPPO ID>  (177) 
49149

>  <tags>  (177) 
[]

>  <ref_pdb>  (177) 
c0270a

>  <method>  (177) 
None

>  <ref_url>  (177) 
None

>  <inchikey>  (177) 
OFMOEVLDJNPERK-UHFFFAOYSA-N

>  <submitter_email>  (177) 
None

>  <ref_mols>  (177) 
c0935a,c1132a

>  <submitter_name>  (177) 
None

$$$$
NBXLVFVQOOAGKL-UHFFFAOYSA-N
     RDKit          3D

 19 20  0  0  0  0  0  0  0  0999 V2000
   21.4213   11.3467   10.5369 C   0  0  0  0  0  0  0  0  0  0  0  0
   19.9959   11.3162   10.5080 O   0  0  0  0  0  0  0  0  0  0  0  0
   19.3379   12.2485   11.2696 C   0  0  0  0  0  0  0  0  0  0  0  0
   17.9366   12.0998   11.3375 C   0  0  0  0  0  0  0  0  0  0  0  0
   17.3173   11.0455   10.6373 N   0  0  0  0  0  0  0  0  0  0  0  0
   16.2662   10.1454   10.8865 C   0  0  0  0  0  0  0  0  0  0  0  0
   15.6724    9.5699    9.7487 C   0  0  0  0  0  0  0  0  0  0  0  0
   14.7184    8.5708    9.8608 C   0  0  0  0  0  0  0  0  0  0  0  0
   14.0731    8.1561    8.7685 F   0  0  0  0  0  0  0  0  0  0  0  0
   14.4036    8.0461   11.0996 C   0  0  0  0  0  0  0  0  0  0  0  0
   13.5375    6.9951   11.1868 O   0  0  0  0  0  0  0  0  0  0  0  0
   14.8969    8.6567   12.2436 C   0  0  0  0  0  0  0  0  0  0  0  0
   15.7580    9.7572   12.1376 C   0  0  0  0  0  0  0  0  0  0  0  0
   16.1617   10.5029   13.6377 Cl  0  0  0  0  0  0  0  0  0  0  0  0
   17.1988   13.0110   12.0928 C   0  0  0  0  0  0  0  0  0  0  0  0
   17.8652   14.0361   12.7383 C   0  0  0  0  0  0  0  0  0  0  0  0
   19.1999   14.2001   12.6979 N   0  0  0  0  0  0  0  0  0  0  0  0
   19.9097   13.2960   11.9853 C   0  0  0  0  0  0  0  0  0  0  0  0
   21.2427   13.4422   12.0115 F   0  0  0  0  0  0  0  0  0  0  0  0
  1  2  1  0
  2  3  1  0
  3  4  2  0
  4  5  1  0
  5  6  1  0
  6  7  2  0
  7  8  1  0
  8  9  1  0
  8 10  2  0
 10 11  1  0
 10 12  1  0
 12 13  2  0
 13 14  1  0
  4 15  1  0
 15 16  2  0
 16 17  1  0
 17 18  2  0
 18 19  1  0
 18  3  1  0
 13  6  1  0
M  END
>  <original ID>  (178) 
NBXLVFVQOOAGKL-UHFFFAOYSA-N

>  <generation_date>  (178) 
None

>  <alias>  (178) 
None

>  <original SMILES>  (178) 
COc1c(Nc2cc(F)c(O)cc2Cl)ccnc1F

>  <HIPPO ID>  (178) 
49151

>  <tags>  (178) 
[]

>  <ref_pdb>  (178) 
c0270a

>  <method>  (178) 
None

>  <ref_url>  (178) 
None

>  <inchikey>  (178) 
NBXLVFVQOOAGKL-UHFFFAOYSA-N

>  <submitter_email>  (178) 
None

>  <ref_mols>  (178) 
c0935a,c1132a

>  <submitter_name>  (178) 
None

$$$$
RALSYTSLFIRYLP-UHFFFAOYSA-N
     RDKit          3D

 19 20  0  0  0  0  0  0  0  0999 V2000
   17.2650   14.8947   13.0226 C   0  0  0  0  0  0  0  0  0  0  0  0
   17.2467   13.4812   12.9047 O   0  0  0  0  0  0  0  0  0  0  0  0
   18.2025   12.9260   12.0974 C   0  0  0  0  0  0  0  0  0  0  0  0
   17.8517   11.8166   11.3125 C   0  0  0  0  0  0  0  0  0  0  0  0
   16.5216   11.3973   11.1190 N   0  0  0  0  0  0  0  0  0  0  0  0
   15.4133   12.2253   11.6086 C   0  0  0  0  0  0  0  0  0  0  0  0
   16.0384   10.0737   11.0038 C   0  0  0  0  0  0  0  0  0  0  0  0
   15.6232    9.6053    9.7590 C   0  0  0  0  0  0  0  0  0  0  0  0
   14.8118    8.4830    9.6776 C   0  0  0  0  0  0  0  0  0  0  0  0
   14.4335    7.8118   10.8361 C   0  0  0  0  0  0  0  0  0  0  0  0
   13.5887    6.7444   10.7371 O   0  0  0  0  0  0  0  0  0  0  0  0
   14.8433    8.2557   12.0936 C   0  0  0  0  0  0  0  0  0  0  0  0
   14.3768    7.6334   13.3731 C   0  0  0  0  0  0  0  0  0  0  0  0
   15.6763    9.3724   12.1619 C   0  0  0  0  0  0  0  0  0  0  0  0
   18.8947   11.1688   10.6342 C   0  0  0  0  0  0  0  0  0  0  0  0
   20.1949   11.6485   10.7274 C   0  0  0  0  0  0  0  0  0  0  0  0
   20.5293   12.7378   11.4367 N   0  0  0  0  0  0  0  0  0  0  0  0
   19.5308   13.3334   12.1151 C   0  0  0  0  0  0  0  0  0  0  0  0
   19.8565   14.3846   12.8754 F   0  0  0  0  0  0  0  0  0  0  0  0
  1  2  1  0
  2  3  1  0
  3  4  2  0
  4  5  1  0
  5  6  1  0
  5  7  1  0
  7  8  2  0
  8  9  1  0
  9 10  2  0
 10 11  1  0
 10 12  1  0
 12 13  1  0
 12 14  2  0
  4 15  1  0
 15 16  2  0
 16 17  1  0
 17 18  2  0
 18 19  1  0
 18  3  1  0
 14  7  1  0
M  END
>  <original ID>  (179) 
RALSYTSLFIRYLP-UHFFFAOYSA-N

>  <generation_date>  (179) 
None

>  <alias>  (179) 
None

>  <original SMILES>  (179) 
COc1c(N(C)c2ccc(O)c(C)c2)ccnc1F

>  <HIPPO ID>  (179) 
49158

>  <tags>  (179) 
[]

>  <ref_pdb>  (179) 
c0270a

>  <method>  (179) 
None

>  <ref_url>  (179) 
None

>  <inchikey>  (179) 
RALSYTSLFIRYLP-UHFFFAOYSA-N

>  <submitter_email>  (179) 
None

>  <ref_mols>  (179) 
c0935a,c1132a

>  <submitter_name>  (179) 
None

$$$$
CQWZOKGIUZJVKN-UHFFFAOYSA-N
     RDKit          3D

 19 20  0  0  0  0  0  0  0  0999 V2000
   21.3550   11.5577   10.6508 C   0  0  0  0  0  0  0  0  0  0  0  0
   19.9357   11.5275   10.5035 O   0  0  0  0  0  0  0  0  0  0  0  0
   19.2195   12.4308   11.2491 C   0  0  0  0  0  0  0  0  0  0  0  0
   17.8500   12.1397   11.4147 C   0  0  0  0  0  0  0  0  0  0  0  0
   17.3188   10.9899   10.8051 N   0  0  0  0  0  0  0  0  0  0  0  0
   16.2646   10.1028   11.0615 C   0  0  0  0  0  0  0  0  0  0  0  0
   15.6360    9.5619    9.9285 C   0  0  0  0  0  0  0  0  0  0  0  0
   14.6494    8.5783   10.0263 C   0  0  0  0  0  0  0  0  0  0  0  0
   13.7490    8.3457    8.8633 C   0  0  0  0  0  0  0  0  0  0  0  0
   14.4045    8.0147   11.2651 C   0  0  0  0  0  0  0  0  0  0  0  0
   13.5517    6.9666   11.4462 O   0  0  0  0  0  0  0  0  0  0  0  0
   14.9258    8.6040   12.4042 C   0  0  0  0  0  0  0  0  0  0  0  0
   15.7884    9.7100   12.3213 C   0  0  0  0  0  0  0  0  0  0  0  0
   16.1073   10.3770   13.6209 C   0  0  0  0  0  0  0  0  0  0  0  0
   17.0618   13.0023   12.1765 C   0  0  0  0  0  0  0  0  0  0  0  0
   17.6481   14.1220   12.7348 C   0  0  0  0  0  0  0  0  0  0  0  0
   18.9406   14.4490   12.5601 N   0  0  0  0  0  0  0  0  0  0  0  0
   19.6947   13.6059   11.8183 C   0  0  0  0  0  0  0  0  0  0  0  0
   20.9429   14.0187   11.5659 F   0  0  0  0  0  0  0  0  0  0  0  0
  1  2  1  0
  2  3  1  0
  3  4  2  0
  4  5  1  0
  5  6  1  0
  6  7  2  0
  7  8  1  0
  8  9  1  0
  8 10  2  0
 10 11  1  0
 10 12  1  0
 12 13  2  0
 13 14  1  0
  4 15  1  0
 15 16  2  0
 16 17  1  0
 17 18  2  0
 18 19  1  0
 18  3  1  0
 13  6  1  0
M  END
>  <original ID>  (180) 
CQWZOKGIUZJVKN-UHFFFAOYSA-N

>  <generation_date>  (180) 
None

>  <alias>  (180) 
None

>  <original SMILES>  (180) 
COc1c(Nc2cc(C)c(O)cc2C)ccnc1F

>  <HIPPO ID>  (180) 
49160

>  <tags>  (180) 
[]

>  <ref_pdb>  (180) 
c0270a

>  <method>  (180) 
None

>  <ref_url>  (180) 
None

>  <inchikey>  (180) 
CQWZOKGIUZJVKN-UHFFFAOYSA-N

>  <submitter_email>  (180) 
None

>  <ref_mols>  (180) 
c0935a,c1132a

>  <submitter_name>  (180) 
None

$$$$
QBOQQLNTUQNKEH-UHFFFAOYSA-N
     RDKit          3D

 19 20  0  0  0  0  0  0  0  0999 V2000
   12.9949    6.3155   12.2889 C   0  0  0  0  0  0  0  0  0  0  0  0
   13.3955    6.9133   11.0669 O   0  0  0  0  0  0  0  0  0  0  0  0
   14.3277    7.9085   11.1150 C   0  0  0  0  0  0  0  0  0  0  0  0
   14.7838    8.3313    9.8805 C   0  0  0  0  0  0  0  0  0  0  0  0
   15.7740    9.3032    9.7997 C   0  0  0  0  0  0  0  0  0  0  0  0
   16.2951    9.9301   10.9474 C   0  0  0  0  0  0  0  0  0  0  0  0
   17.4267   10.7316   10.7270 N   0  0  0  0  0  0  0  0  0  0  0  0
   18.0255   11.8798   11.2605 C   0  0  0  0  0  0  0  0  0  0  0  0
   17.3544   12.8522   11.9883 C   0  0  0  0  0  0  0  0  0  0  0  0
   18.0485   13.9944   12.3635 C   0  0  0  0  0  0  0  0  0  0  0  0
   19.3028   14.2813   11.9661 N   0  0  0  0  0  0  0  0  0  0  0  0
   19.9221   13.3259   11.2722 C   0  0  0  0  0  0  0  0  0  0  0  0
   21.0820   13.6172   10.6806 F   0  0  0  0  0  0  0  0  0  0  0  0
   19.3880   12.0880   11.0195 C   0  0  0  0  0  0  0  0  0  0  0  0
   20.1529   11.0882   10.5004 O   0  0  0  0  0  0  0  0  0  0  0  0
   21.4911   11.0929   11.0238 C   0  0  0  0  0  0  0  0  0  0  0  0
   15.6845    9.6384   12.1780 C   0  0  0  0  0  0  0  0  0  0  0  0
   15.9987   10.4557   13.7335 S   0  0  0  0  0  0  0  0  0  0  0  0
   14.7682    8.5721   12.2571 C   0  0  0  0  0  0  0  0  0  0  0  0
  1  2  1  0
  2  3  1  0
  3  4  2  0
  4  5  1  0
  5  6  2  0
  6  7  1  0
  7  8  1  0
  8  9  2  0
  9 10  1  0
 10 11  2  0
 11 12  1  0
 12 13  1  0
 12 14  2  0
 14 15  1  0
 15 16  1  0
  6 17  1  0
 17 18  1  0
 17 19  2  0
 19  3  1  0
 14  8  1  0
M  END
>  <original ID>  (181) 
QBOQQLNTUQNKEH-UHFFFAOYSA-N

>  <generation_date>  (181) 
None

>  <alias>  (181) 
None

>  <original SMILES>  (181) 
COc1ccc(Nc2ccnc(F)c2OC)c(S)c1

>  <HIPPO ID>  (181) 
49252

>  <tags>  (181) 
[]

>  <ref_pdb>  (181) 
c0270a

>  <method>  (181) 
None

>  <ref_url>  (181) 
None

>  <inchikey>  (181) 
QBOQQLNTUQNKEH-UHFFFAOYSA-N

>  <submitter_email>  (181) 
None

>  <ref_mols>  (181) 
c0935a,c1132a

>  <submitter_name>  (181) 
None

$$$$
SFXAPSZKTTZBFR-UHFFFAOYSA-N
     RDKit          3D

 19 20  0  0  0  0  0  0  0  0999 V2000
   21.3145   11.5861   10.5877 C   0  0  0  0  0  0  0  0  0  0  0  0
   19.8976   11.4937   10.6537 O   0  0  0  0  0  0  0  0  0  0  0  0
   19.1900   12.4203   11.3808 C   0  0  0  0  0  0  0  0  0  0  0  0
   17.7990   12.1627   11.4332 C   0  0  0  0  0  0  0  0  0  0  0  0
   17.2809   11.0236   10.7891 N   0  0  0  0  0  0  0  0  0  0  0  0
   16.2489   10.1128   11.0531 C   0  0  0  0  0  0  0  0  0  0  0  0
   15.6242    9.5584    9.9271 C   0  0  0  0  0  0  0  0  0  0  0  0
   14.6488    8.5689   10.0433 C   0  0  0  0  0  0  0  0  0  0  0  0
   13.7470    8.2817    8.8949 C   0  0  0  0  0  0  0  0  0  0  0  0
   14.4046    8.0127   11.2856 C   0  0  0  0  0  0  0  0  0  0  0  0
   13.5315    6.9685   11.3847 O   0  0  0  0  0  0  0  0  0  0  0  0
   14.9331    8.6042   12.4210 C   0  0  0  0  0  0  0  0  0  0  0  0
   15.7862    9.7180   12.3203 C   0  0  0  0  0  0  0  0  0  0  0  0
   16.1053   10.4075   13.6098 C   0  0  0  0  0  0  0  0  0  0  0  0
   16.9632   13.0294   12.1349 C   0  0  0  0  0  0  0  0  0  0  0  0
   17.5241   14.1252   12.7489 C   0  0  0  0  0  0  0  0  0  0  0  0
   18.8409   14.3952   12.7219 N   0  0  0  0  0  0  0  0  0  0  0  0
   19.6580   13.5468   12.0627 C   0  0  0  0  0  0  0  0  0  0  0  0
   20.9920   13.9073   12.1856 N   0  0  0  0  0  0  0  0  0  0  0  0
  1  2  1  0
  2  3  1  0
  3  4  2  0
  4  5  1  0
  5  6  1  0
  6  7  2  0
  7  8  1  0
  8  9  1  0
  8 10  2  0
 10 11  1  0
 10 12  1  0
 12 13  2  0
 13 14  1  0
  4 15  1  0
 15 16  2  0
 16 17  1  0
 17 18  2  0
 18 19  1  0
 18  3  1  0
 13  6  1  0
M  END
>  <original ID>  (182) 
SFXAPSZKTTZBFR-UHFFFAOYSA-N

>  <generation_date>  (182) 
None

>  <alias>  (182) 
None

>  <original SMILES>  (182) 
COc1c(Nc2cc(C)c(O)cc2C)ccnc1N

>  <HIPPO ID>  (182) 
49273

>  <tags>  (182) 
[]

>  <ref_pdb>  (182) 
c0270a

>  <method>  (182) 
None

>  <ref_url>  (182) 
None

>  <inchikey>  (182) 
SFXAPSZKTTZBFR-UHFFFAOYSA-N

>  <submitter_email>  (182) 
None

>  <ref_mols>  (182) 
c0935a,c1132a

>  <submitter_name>  (182) 
None

$$$$
HFECEOZSSWQRRI-UHFFFAOYSA-N
     RDKit          3D

 19 20  0  0  0  0  0  0  0  0999 V2000
   17.1596   14.4694   13.6273 C   0  0  0  0  0  0  0  0  0  0  0  0
   17.1950   13.1626   13.0946 O   0  0  0  0  0  0  0  0  0  0  0  0
   18.1599   12.8278   12.1785 C   0  0  0  0  0  0  0  0  0  0  0  0
   17.8360   11.7565   11.3207 C   0  0  0  0  0  0  0  0  0  0  0  0
   16.5108   11.3412   11.0611 N   0  0  0  0  0  0  0  0  0  0  0  0
   15.4055   12.2120   11.4835 C   0  0  0  0  0  0  0  0  0  0  0  0
   16.0214   10.0125   11.0679 C   0  0  0  0  0  0  0  0  0  0  0  0
   15.5775    9.4336    9.8782 C   0  0  0  0  0  0  0  0  0  0  0  0
   14.7657    8.3054    9.9229 C   0  0  0  0  0  0  0  0  0  0  0  0
   14.4153    7.7487   11.1482 C   0  0  0  0  0  0  0  0  0  0  0  0
   13.5464    6.6969   11.1174 O   0  0  0  0  0  0  0  0  0  0  0  0
   14.8576    8.3022   12.3521 C   0  0  0  0  0  0  0  0  0  0  0  0
   14.4135    7.8195   13.6978 C   0  0  0  0  0  0  0  0  0  0  0  0
   15.6983    9.4131   12.2937 C   0  0  0  0  0  0  0  0  0  0  0  0
   18.8838   11.1544   10.6160 C   0  0  0  0  0  0  0  0  0  0  0  0
   20.1625   11.6686   10.7209 C   0  0  0  0  0  0  0  0  0  0  0  0
   20.4542   12.7678   11.4362 N   0  0  0  0  0  0  0  0  0  0  0  0
   19.4636   13.3284   12.1508 C   0  0  0  0  0  0  0  0  0  0  0  0
   19.8604   14.4689   12.8392 N   0  0  0  0  0  0  0  0  0  0  0  0
  1  2  1  0
  2  3  1  0
  3  4  2  0
  4  5  1  0
  5  6  1  0
  5  7  1  0
  7  8  2  0
  8  9  1  0
  9 10  2  0
 10 11  1  0
 10 12  1  0
 12 13  1  0
 12 14  2  0
  4 15  1  0
 15 16  2  0
 16 17  1  0
 17 18  2  0
 18 19  1  0
 18  3  1  0
 14  7  1  0
M  END
>  <original ID>  (183) 
HFECEOZSSWQRRI-UHFFFAOYSA-N

>  <generation_date>  (183) 
None

>  <alias>  (183) 
None

>  <original SMILES>  (183) 
COc1c(N(C)c2ccc(O)c(C)c2)ccnc1N

>  <HIPPO ID>  (183) 
49294

>  <tags>  (183) 
[]

>  <ref_pdb>  (183) 
c0270a

>  <method>  (183) 
None

>  <ref_url>  (183) 
None

>  <inchikey>  (183) 
HFECEOZSSWQRRI-UHFFFAOYSA-N

>  <submitter_email>  (183) 
None

>  <ref_mols>  (183) 
c0935a,c1132a

>  <submitter_name>  (183) 
None

$$$$
SMIPRHCKJZKIPO-UHFFFAOYSA-N
     RDKit          3D

 19 20  0  0  0  0  0  0  0  0999 V2000
   21.3761   11.4737   10.5033 C   0  0  0  0  0  0  0  0  0  0  0  0
   19.9658   11.3383   10.6433 O   0  0  0  0  0  0  0  0  0  0  0  0
   19.2827   12.2749   11.3818 C   0  0  0  0  0  0  0  0  0  0  0  0
   17.8772   12.1083   11.3706 C   0  0  0  0  0  0  0  0  0  0  0  0
   17.3112   11.0477   10.6355 N   0  0  0  0  0  0  0  0  0  0  0  0
   16.2463   10.1511   10.8259 C   0  0  0  0  0  0  0  0  0  0  0  0
   15.6626    9.6441    9.6528 C   0  0  0  0  0  0  0  0  0  0  0  0
   14.7104    8.6464    9.7061 C   0  0  0  0  0  0  0  0  0  0  0  0
   14.0649    8.2695    8.5998 F   0  0  0  0  0  0  0  0  0  0  0  0
   14.3892    8.0548   10.9096 C   0  0  0  0  0  0  0  0  0  0  0  0
   13.5347    6.9923   10.9495 O   0  0  0  0  0  0  0  0  0  0  0  0
   14.8682    8.5943   12.0912 C   0  0  0  0  0  0  0  0  0  0  0  0
   15.7286    9.6988   12.0533 C   0  0  0  0  0  0  0  0  0  0  0  0
   16.1253   10.3805   13.5859 Cl  0  0  0  0  0  0  0  0  0  0  0  0
   17.0784   12.9970   12.0857 C   0  0  0  0  0  0  0  0  0  0  0  0
   17.6909   14.0334   12.7558 C   0  0  0  0  0  0  0  0  0  0  0  0
   19.0254   14.2047   12.8030 N   0  0  0  0  0  0  0  0  0  0  0  0
   19.8058   13.3082   12.1658 C   0  0  0  0  0  0  0  0  0  0  0  0
   21.1583   13.4507   12.4707 N   0  0  0  0  0  0  0  0  0  0  0  0
  1  2  1  0
  2  3  1  0
  3  4  2  0
  4  5  1  0
  5  6  1  0
  6  7  2  0
  7  8  1  0
  8  9  1  0
  8 10  2  0
 10 11  1  0
 10 12  1  0
 12 13  2  0
 13 14  1  0
  4 15  1  0
 15 16  2  0
 16 17  1  0
 17 18  2  0
 18 19  1  0
 18  3  1  0
 13  6  1  0
M  END
>  <original ID>  (184) 
SMIPRHCKJZKIPO-UHFFFAOYSA-N

>  <generation_date>  (184) 
None

>  <alias>  (184) 
None

>  <original SMILES>  (184) 
COc1c(Nc2cc(F)c(O)cc2Cl)ccnc1N

>  <HIPPO ID>  (184) 
49299

>  <tags>  (184) 
[]

>  <ref_pdb>  (184) 
c0270a

>  <method>  (184) 
None

>  <ref_url>  (184) 
None

>  <inchikey>  (184) 
SMIPRHCKJZKIPO-UHFFFAOYSA-N

>  <submitter_email>  (184) 
None

>  <ref_mols>  (184) 
c0935a,c1132a

>  <submitter_name>  (184) 
None

$$$$
ZXLDQYWYMIGZFJ-UHFFFAOYSA-N
     RDKit          3D

 19 20  0  0  0  0  0  0  0  0999 V2000
   21.5000   11.3678   10.4194 C   0  0  0  0  0  0  0  0  0  0  0  0
   20.0809   11.3922   10.4410 O   0  0  0  0  0  0  0  0  0  0  0  0
   19.4389   12.3182   11.2212 C   0  0  0  0  0  0  0  0  0  0  0  0
   18.0495   12.0844   11.3517 C   0  0  0  0  0  0  0  0  0  0  0  0
   17.4656   11.0033   10.6638 N   0  0  0  0  0  0  0  0  0  0  0  0
   16.4017   10.1473   10.9511 C   0  0  0  0  0  0  0  0  0  0  0  0
   15.7107    9.5668    9.8903 C   0  0  0  0  0  0  0  0  0  0  0  0
   14.7148    8.6202   10.1194 C   0  0  0  0  0  0  0  0  0  0  0  0
   13.7993    8.2274    9.0088 C   0  0  0  0  0  0  0  0  0  0  0  0
   14.4814    8.1825   11.4206 C   0  0  0  0  0  0  0  0  0  0  0  0
   13.6213    7.1304   11.5782 O   0  0  0  0  0  0  0  0  0  0  0  0
   15.0353    8.8615   12.5076 C   0  0  0  0  0  0  0  0  0  0  0  0
   14.6734    8.5635   13.9308 C   0  0  0  0  0  0  0  0  0  0  0  0
   15.9814    9.8633   12.2514 C   0  0  0  0  0  0  0  0  0  0  0  0
   17.2859   12.9203   12.1626 C   0  0  0  0  0  0  0  0  0  0  0  0
   17.9080   14.0033   12.7447 C   0  0  0  0  0  0  0  0  0  0  0  0
   19.2207   14.2760   12.6057 N   0  0  0  0  0  0  0  0  0  0  0  0
   19.9758   13.4305   11.8722 C   0  0  0  0  0  0  0  0  0  0  0  0
   21.3178   13.7999   11.8332 N   0  0  0  0  0  0  0  0  0  0  0  0
  1  2  1  0
  2  3  1  0
  3  4  2  0
  4  5  1  0
  5  6  1  0
  6  7  2  0
  7  8  1  0
  8  9  1  0
  8 10  2  0
 10 11  1  0
 10 12  1  0
 12 13  1  0
 12 14  2  0
  4 15  1  0
 15 16  2  0
 16 17  1  0
 17 18  2  0
 18 19  1  0
 18  3  1  0
 14  6  1  0
M  END
>  <original ID>  (185) 
ZXLDQYWYMIGZFJ-UHFFFAOYSA-N

>  <generation_date>  (185) 
None

>  <alias>  (185) 
None

>  <original SMILES>  (185) 
COc1c(Nc2cc(C)c(O)c(C)c2)ccnc1N

>  <HIPPO ID>  (185) 
49303

>  <tags>  (185) 
[]

>  <ref_pdb>  (185) 
c0270a

>  <method>  (185) 
None

>  <ref_url>  (185) 
None

>  <inchikey>  (185) 
ZXLDQYWYMIGZFJ-UHFFFAOYSA-N

>  <submitter_email>  (185) 
None

>  <ref_mols>  (185) 
c0935a,c1132a

>  <submitter_name>  (185) 
None

$$$$
IYFPQYDWZKVIMA-UHFFFAOYSA-N
     RDKit          3D

 19 20  0  0  0  0  0  0  0  0999 V2000
   13.3376    6.1764   10.1568 C   0  0  0  0  0  0  0  0  0  0  0  0
   13.5810    7.0184   11.2724 O   0  0  0  0  0  0  0  0  0  0  0  0
   14.4641    8.0386   11.0689 C   0  0  0  0  0  0  0  0  0  0  0  0
   14.9447    8.4642    9.8487 C   0  0  0  0  0  0  0  0  0  0  0  0
   15.8902    9.4810    9.8005 C   0  0  0  0  0  0  0  0  0  0  0  0
   16.3443   10.1468   10.9548 C   0  0  0  0  0  0  0  0  0  0  0  0
   17.4131   11.0341   10.7390 N   0  0  0  0  0  0  0  0  0  0  0  0
   17.9779   12.1599   11.3640 C   0  0  0  0  0  0  0  0  0  0  0  0
   17.2178   13.0712   12.0939 C   0  0  0  0  0  0  0  0  0  0  0  0
   17.8492   14.1390   12.7176 C   0  0  0  0  0  0  0  0  0  0  0  0
   17.0599   15.0923   13.5603 C   0  0  0  0  0  0  0  0  0  0  0  0
   19.1808   14.3460   12.6320 N   0  0  0  0  0  0  0  0  0  0  0  0
   19.9115   13.4619   11.9125 C   0  0  0  0  0  0  0  0  0  0  0  0
   19.3695   12.3634   11.2655 C   0  0  0  0  0  0  0  0  0  0  0  0
   20.0645   11.4340   10.5355 O   0  0  0  0  0  0  0  0  0  0  0  0
   21.4879   11.5132   10.5877 C   0  0  0  0  0  0  0  0  0  0  0  0
   15.7128    9.8285   12.1688 C   0  0  0  0  0  0  0  0  0  0  0  0
   15.9543   10.6047   13.7540 S   0  0  0  0  0  0  0  0  0  0  0  0
   14.8350    8.7349   12.2151 C   0  0  0  0  0  0  0  0  0  0  0  0
  1  2  1  0
  2  3  1  0
  3  4  2  0
  4  5  1  0
  5  6  2  0
  6  7  1  0
  7  8  1  0
  8  9  2  0
  9 10  1  0
 10 11  1  0
 10 12  2  0
 12 13  1  0
 13 14  2  0
 14 15  1  0
 15 16  1  0
  6 17  1  0
 17 18  1  0
 17 19  2  0
 19  3  1  0
 14  8  1  0
M  END
>  <original ID>  (186) 
IYFPQYDWZKVIMA-UHFFFAOYSA-N

>  <generation_date>  (186) 
None

>  <alias>  (186) 
None

>  <original SMILES>  (186) 
COc1ccc(Nc2cc(C)ncc2OC)c(S)c1

>  <HIPPO ID>  (186) 
49336

>  <tags>  (186) 
[]

>  <ref_pdb>  (186) 
c0270a

>  <method>  (186) 
None

>  <ref_url>  (186) 
None

>  <inchikey>  (186) 
IYFPQYDWZKVIMA-UHFFFAOYSA-N

>  <submitter_email>  (186) 
None

>  <ref_mols>  (186) 
c0935a,c1132a

>  <submitter_name>  (186) 
None

$$$$
UXCMZKFFWGEFCF-UHFFFAOYSA-N
     RDKit          3D

 19 20  0  0  0  0  0  0  0  0999 V2000
   20.9832   10.5640    9.9555 C   0  0  0  0  0  0  0  0  0  0  0  0
   19.6101   10.8875   10.2099 O   0  0  0  0  0  0  0  0  0  0  0  0
   19.4020   11.9377   11.0539 C   0  0  0  0  0  0  0  0  0  0  0  0
   20.4567   12.8008   11.3944 C   0  0  0  0  0  0  0  0  0  0  0  0
   20.3508   13.8952   12.1657 N   0  0  0  0  0  0  0  0  0  0  0  0
   19.1486   14.1292   12.6906 C   0  0  0  0  0  0  0  0  0  0  0  0
   18.9804   15.3537   13.5200 C   0  0  0  0  0  0  0  0  0  0  0  0
   18.0495   13.3258   12.4425 C   0  0  0  0  0  0  0  0  0  0  0  0
   18.1128   12.2241   11.5679 C   0  0  0  0  0  0  0  0  0  0  0  0
   16.8846   11.6046   11.1851 N   0  0  0  0  0  0  0  0  0  0  0  0
   15.6575   12.3535   11.5473 C   0  0  0  0  0  0  0  0  0  0  0  0
   16.4588   10.2376   11.1851 C   0  0  0  0  0  0  0  0  0  0  0  0
   16.0880    9.6526    9.9714 C   0  0  0  0  0  0  0  0  0  0  0  0
   15.2104    8.5718    9.9282 C   0  0  0  0  0  0  0  0  0  0  0  0
   14.7021    8.0443   11.1071 C   0  0  0  0  0  0  0  0  0  0  0  0
   13.7854    7.0332   11.0449 O   0  0  0  0  0  0  0  0  0  0  0  0
   15.0744    8.5750   12.3433 C   0  0  0  0  0  0  0  0  0  0  0  0
   14.4906    8.1040   13.6410 C   0  0  0  0  0  0  0  0  0  0  0  0
   15.9697    9.6562   12.3699 C   0  0  0  0  0  0  0  0  0  0  0  0
  1  2  1  0
  2  3  1  0
  3  4  2  0
  4  5  1  0
  5  6  2  0
  6  7  1  0
  6  8  1  0
  8  9  2  0
  9 10  1  0
 10 11  1  0
 10 12  1  0
 12 13  2  0
 13 14  1  0
 14 15  2  0
 15 16  1  0
 15 17  1  0
 17 18  1  0
 17 19  2  0
  9  3  1  0
 19 12  1  0
M  END
>  <original ID>  (187) 
UXCMZKFFWGEFCF-UHFFFAOYSA-N

>  <generation_date>  (187) 
None

>  <alias>  (187) 
None

>  <original SMILES>  (187) 
COc1cnc(C)cc1N(C)c1ccc(O)c(C)c1

>  <HIPPO ID>  (187) 
49345

>  <tags>  (187) 
[]

>  <ref_pdb>  (187) 
c0270a

>  <method>  (187) 
None

>  <ref_url>  (187) 
None

>  <inchikey>  (187) 
UXCMZKFFWGEFCF-UHFFFAOYSA-N

>  <submitter_email>  (187) 
None

>  <ref_mols>  (187) 
c0935a,c1132a

>  <submitter_name>  (187) 
None

$$$$
SUZXMUVIIMUGOC-UHFFFAOYSA-N
     RDKit          3D

 19 20  0  0  0  0  0  0  0  0999 V2000
   21.5482   11.5377   10.5580 C   0  0  0  0  0  0  0  0  0  0  0  0
   20.1288   11.4535   10.4630 O   0  0  0  0  0  0  0  0  0  0  0  0
   19.4105   12.3348   11.2257 C   0  0  0  0  0  0  0  0  0  0  0  0
   19.9173   13.4381   11.8927 C   0  0  0  0  0  0  0  0  0  0  0  0
   19.1644   14.2750   12.6459 N   0  0  0  0  0  0  0  0  0  0  0  0
   17.8497   13.9963   12.7733 C   0  0  0  0  0  0  0  0  0  0  0  0
   17.0319   14.9199   13.6220 C   0  0  0  0  0  0  0  0  0  0  0  0
   17.2571   12.9005   12.1613 C   0  0  0  0  0  0  0  0  0  0  0  0
   18.0333   12.0763   11.3437 C   0  0  0  0  0  0  0  0  0  0  0  0
   17.4719   10.9852   10.6578 N   0  0  0  0  0  0  0  0  0  0  0  0
   16.4052   10.1305   10.9410 C   0  0  0  0  0  0  0  0  0  0  0  0
   15.7108    9.5555    9.8801 C   0  0  0  0  0  0  0  0  0  0  0  0
   14.7108    8.6130   10.1095 C   0  0  0  0  0  0  0  0  0  0  0  0
   13.7905    8.2279    9.0005 C   0  0  0  0  0  0  0  0  0  0  0  0
   14.4770    8.1731   11.4102 C   0  0  0  0  0  0  0  0  0  0  0  0
   13.6132    7.1239   11.5665 O   0  0  0  0  0  0  0  0  0  0  0  0
   15.0346    8.8474   12.4977 C   0  0  0  0  0  0  0  0  0  0  0  0
   14.6736    8.5497   13.9211 C   0  0  0  0  0  0  0  0  0  0  0  0
   15.9846    9.8450   12.2415 C   0  0  0  0  0  0  0  0  0  0  0  0
  1  2  1  0
  2  3  1  0
  3  4  2  0
  4  5  1  0
  5  6  2  0
  6  7  1  0
  6  8  1  0
  8  9  2  0
  9 10  1  0
 10 11  1  0
 11 12  2  0
 12 13  1  0
 13 14  1  0
 13 15  2  0
 15 16  1  0
 15 17  1  0
 17 18  1  0
 17 19  2  0
  9  3  1  0
 19 11  1  0
M  END
>  <original ID>  (188) 
SUZXMUVIIMUGOC-UHFFFAOYSA-N

>  <generation_date>  (188) 
None

>  <alias>  (188) 
None

>  <original SMILES>  (188) 
COc1cnc(C)cc1Nc1cc(C)c(O)c(C)c1

>  <HIPPO ID>  (188) 
49346

>  <tags>  (188) 
[]

>  <ref_pdb>  (188) 
c0270a

>  <method>  (188) 
None

>  <ref_url>  (188) 
None

>  <inchikey>  (188) 
SUZXMUVIIMUGOC-UHFFFAOYSA-N

>  <submitter_email>  (188) 
None

>  <ref_mols>  (188) 
c0935a,c1132a

>  <submitter_name>  (188) 
None

$$$$
WQCXLHPGVAFHDV-UHFFFAOYSA-N
     RDKit          3D

 19 20  0  0  0  0  0  0  0  0999 V2000
   21.4300   11.4790   10.5936 C   0  0  0  0  0  0  0  0  0  0  0  0
   20.0087   11.4129   10.4956 O   0  0  0  0  0  0  0  0  0  0  0  0
   19.2997   12.3092   11.2525 C   0  0  0  0  0  0  0  0  0  0  0  0
   19.8262   13.4044   11.9184 C   0  0  0  0  0  0  0  0  0  0  0  0
   19.0841   14.2636   12.6540 N   0  0  0  0  0  0  0  0  0  0  0  0
   17.7597   14.0214   12.7568 C   0  0  0  0  0  0  0  0  0  0  0  0
   16.9576   14.9575   13.6065 C   0  0  0  0  0  0  0  0  0  0  0  0
   17.1443   12.9457   12.1294 C   0  0  0  0  0  0  0  0  0  0  0  0
   17.9124   12.0797   11.3530 C   0  0  0  0  0  0  0  0  0  0  0  0
   17.3489   10.9921   10.6610 N   0  0  0  0  0  0  0  0  0  0  0  0
   16.2634   10.1202   10.8412 C   0  0  0  0  0  0  0  0  0  0  0  0
   15.6755    9.6288    9.6629 C   0  0  0  0  0  0  0  0  0  0  0  0
   14.7113    8.6423    9.7064 C   0  0  0  0  0  0  0  0  0  0  0  0
   14.0672    8.2773    8.5952 F   0  0  0  0  0  0  0  0  0  0  0  0
   14.3802    8.0468   10.9050 C   0  0  0  0  0  0  0  0  0  0  0  0
   13.5191    6.9894   10.9354 O   0  0  0  0  0  0  0  0  0  0  0  0
   14.8576    8.5769   12.0912 C   0  0  0  0  0  0  0  0  0  0  0  0
   15.7302    9.6723   12.0633 C   0  0  0  0  0  0  0  0  0  0  0  0
   16.1265   10.3385   13.6021 Cl  0  0  0  0  0  0  0  0  0  0  0  0
  1  2  1  0
  2  3  1  0
  3  4  2  0
  4  5  1  0
  5  6  2  0
  6  7  1  0
  6  8  1  0
  8  9  2  0
  9 10  1  0
 10 11  1  0
 11 12  2  0
 12 13  1  0
 13 14  1  0
 13 15  2  0
 15 16  1  0
 15 17  1  0
 17 18  2  0
 18 19  1  0
  9  3  1  0
 18 11  1  0
M  END
>  <original ID>  (189) 
WQCXLHPGVAFHDV-UHFFFAOYSA-N

>  <generation_date>  (189) 
None

>  <alias>  (189) 
None

>  <original SMILES>  (189) 
COc1cnc(C)cc1Nc1cc(F)c(O)cc1Cl

>  <HIPPO ID>  (189) 
49348

>  <tags>  (189) 
[]

>  <ref_pdb>  (189) 
c0270a

>  <method>  (189) 
None

>  <ref_url>  (189) 
None

>  <inchikey>  (189) 
WQCXLHPGVAFHDV-UHFFFAOYSA-N

>  <submitter_email>  (189) 
None

>  <ref_mols>  (189) 
c0935a,c1132a

>  <submitter_name>  (189) 
None

$$$$
AZYYJGNKGIXTAF-UHFFFAOYSA-N
     RDKit          3D

 19 20  0  0  0  0  0  0  0  0999 V2000
   21.4223   11.4778   10.5812 C   0  0  0  0  0  0  0  0  0  0  0  0
   19.9981   11.4206   10.5158 O   0  0  0  0  0  0  0  0  0  0  0  0
   19.3110   12.3442   11.2588 C   0  0  0  0  0  0  0  0  0  0  0  0
   19.8612   13.4442   11.8975 C   0  0  0  0  0  0  0  0  0  0  0  0
   19.1419   14.3281   12.6298 N   0  0  0  0  0  0  0  0  0  0  0  0
   17.8140   14.1130   12.7463 C   0  0  0  0  0  0  0  0  0  0  0  0
   17.0366   15.0708   13.5942 C   0  0  0  0  0  0  0  0  0  0  0  0
   17.1751   13.0386   12.1424 C   0  0  0  0  0  0  0  0  0  0  0  0
   17.9227   12.1394   11.3828 C   0  0  0  0  0  0  0  0  0  0  0  0
   17.3278   11.0336   10.7499 N   0  0  0  0  0  0  0  0  0  0  0  0
   16.2813   10.1433   11.0336 C   0  0  0  0  0  0  0  0  0  0  0  0
   15.6481    9.5793    9.9132 C   0  0  0  0  0  0  0  0  0  0  0  0
   14.6657    8.5931   10.0305 C   0  0  0  0  0  0  0  0  0  0  0  0
   13.7595    8.3371    8.8768 C   0  0  0  0  0  0  0  0  0  0  0  0
   14.4285    8.0493   11.2792 C   0  0  0  0  0  0  0  0  0  0  0  0
   13.5818    6.9998   11.4800 O   0  0  0  0  0  0  0  0  0  0  0  0
   14.9504    8.6618   12.4057 C   0  0  0  0  0  0  0  0  0  0  0  0
   15.8083    9.7708   12.3009 C   0  0  0  0  0  0  0  0  0  0  0  0
   16.1190   10.4687   13.5860 C   0  0  0  0  0  0  0  0  0  0  0  0
  1  2  1  0
  2  3  1  0
  3  4  2  0
  4  5  1  0
  5  6  2  0
  6  7  1  0
  6  8  1  0
  8  9  2  0
  9 10  1  0
 10 11  1  0
 11 12  2  0
 12 13  1  0
 13 14  1  0
 13 15  2  0
 15 16  1  0
 15 17  1  0
 17 18  2  0
 18 19  1  0
  9  3  1  0
 18 11  1  0
M  END
>  <original ID>  (190) 
AZYYJGNKGIXTAF-UHFFFAOYSA-N

>  <generation_date>  (190) 
None

>  <alias>  (190) 
None

>  <original SMILES>  (190) 
COc1cnc(C)cc1Nc1cc(C)c(O)cc1C

>  <HIPPO ID>  (190) 
49360

>  <tags>  (190) 
[]

>  <ref_pdb>  (190) 
c0270a

>  <method>  (190) 
None

>  <ref_url>  (190) 
None

>  <inchikey>  (190) 
AZYYJGNKGIXTAF-UHFFFAOYSA-N

>  <submitter_email>  (190) 
None

>  <ref_mols>  (190) 
c0935a,c1132a

>  <submitter_name>  (190) 
None

$$$$
HEYLRTGUVAOXOL-UHFFFAOYSA-N
     RDKit          3D

 19 20  0  0  0  0  0  0  0  0999 V2000
   13.2016    6.3012   12.4655 C   0  0  0  0  0  0  0  0  0  0  0  0
   13.5122    7.0302   11.2973 O   0  0  0  0  0  0  0  0  0  0  0  0
   14.4399    8.0307   11.3193 C   0  0  0  0  0  0  0  0  0  0  0  0
   14.8428    8.3656   10.0219 C   0  0  0  0  0  0  0  0  0  0  0  0
   15.8093    9.3380    9.7927 C   0  0  0  0  0  0  0  0  0  0  0  0
   16.3860   10.0224   10.8568 C   0  0  0  0  0  0  0  0  0  0  0  0
   17.4377   10.9077   10.6015 N   0  0  0  0  0  0  0  0  0  0  0  0
   17.9781   12.0020   11.3032 C   0  0  0  0  0  0  0  0  0  0  0  0
   17.1862   12.8163   12.1162 C   0  0  0  0  0  0  0  0  0  0  0  0
   17.7618   13.9151   12.7416 C   0  0  0  0  0  0  0  0  0  0  0  0
   16.9274   14.8268   13.5872 C   0  0  0  0  0  0  0  0  0  0  0  0
   19.0748   14.2083   12.6312 N   0  0  0  0  0  0  0  0  0  0  0  0
   19.8433   13.3835   11.8815 C   0  0  0  0  0  0  0  0  0  0  0  0
   19.3547   12.2779   11.2032 C   0  0  0  0  0  0  0  0  0  0  0  0
   20.0950   11.4111   10.4446 O   0  0  0  0  0  0  0  0  0  0  0  0
   21.5118   11.5083   10.5647 C   0  0  0  0  0  0  0  0  0  0  0  0
   15.8928    9.7763   12.1391 C   0  0  0  0  0  0  0  0  0  0  0  0
   14.9397    8.7689   12.4027 C   0  0  0  0  0  0  0  0  0  0  0  0
   14.5801    8.5698   13.8469 C   0  0  0  0  0  0  0  0  0  0  0  0
  1  2  1  0
  2  3  1  0
  3  4  2  0
  4  5  1  0
  5  6  2  0
  6  7  1  0
  7  8  1  0
  8  9  2  0
  9 10  1  0
 10 11  1  0
 10 12  2  0
 12 13  1  0
 13 14  2  0
 14 15  1  0
 15 16  1  0
  6 17  1  0
 17 18  2  0
 18 19  1  0
 18  3  1  0
 14  8  1  0
M  END
>  <original ID>  (191) 
HEYLRTGUVAOXOL-UHFFFAOYSA-N

>  <generation_date>  (191) 
None

>  <alias>  (191) 
None

>  <original SMILES>  (191) 
COc1ccc(Nc2cc(C)ncc2OC)cc1C

>  <HIPPO ID>  (191) 
49366

>  <tags>  (191) 
[]

>  <ref_pdb>  (191) 
c0270a

>  <method>  (191) 
None

>  <ref_url>  (191) 
None

>  <inchikey>  (191) 
HEYLRTGUVAOXOL-UHFFFAOYSA-N

>  <submitter_email>  (191) 
None

>  <ref_mols>  (191) 
c0935a,c1132a

>  <submitter_name>  (191) 
None

$$$$
VHQUFOLIUYRMQG-UHFFFAOYSA-N
     RDKit          3D

 19 20  0  0  0  0  0  0  0  0999 V2000
   13.4384    5.9982   10.7317 C   0  0  0  0  0  0  0  0  0  0  0  0
   13.6203    7.0342   11.6877 O   0  0  0  0  0  0  0  0  0  0  0  0
   14.5065    8.0283   11.3712 C   0  0  0  0  0  0  0  0  0  0  0  0
   14.8997    8.3256   10.0690 C   0  0  0  0  0  0  0  0  0  0  0  0
   15.8426    9.3262    9.8321 C   0  0  0  0  0  0  0  0  0  0  0  0
   16.3972   10.0631   10.8821 C   0  0  0  0  0  0  0  0  0  0  0  0
   17.4303   10.9622   10.5995 N   0  0  0  0  0  0  0  0  0  0  0  0
   17.9885   12.0446   11.3076 C   0  0  0  0  0  0  0  0  0  0  0  0
   17.2077   12.8701   12.1202 C   0  0  0  0  0  0  0  0  0  0  0  0
   17.7999   13.9566   12.7506 C   0  0  0  0  0  0  0  0  0  0  0  0
   16.9793   14.8749   13.6026 C   0  0  0  0  0  0  0  0  0  0  0  0
   19.1170   14.2301   12.6401 N   0  0  0  0  0  0  0  0  0  0  0  0
   19.8739   13.3951   11.8898 C   0  0  0  0  0  0  0  0  0  0  0  0
   19.3690   12.2986   11.2093 C   0  0  0  0  0  0  0  0  0  0  0  0
   20.0943   11.4202   10.4497 O   0  0  0  0  0  0  0  0  0  0  0  0
   21.5131   11.5025   10.5604 C   0  0  0  0  0  0  0  0  0  0  0  0
   15.9011    9.8588   12.1669 C   0  0  0  0  0  0  0  0  0  0  0  0
   14.9869    8.8331   12.4157 C   0  0  0  0  0  0  0  0  0  0  0  0
   14.4151    8.5541   14.4228 I   0  0  0  0  0  0  0  0  0  0  0  0
  1  2  1  0
  2  3  1  0
  3  4  2  0
  4  5  1  0
  5  6  2  0
  6  7  1  0
  7  8  1  0
  8  9  2  0
  9 10  1  0
 10 11  1  0
 10 12  2  0
 12 13  1  0
 13 14  2  0
 14 15  1  0
 15 16  1  0
  6 17  1  0
 17 18  2  0
 18 19  1  0
 18  3  1  0
 14  8  1  0
M  END
>  <original ID>  (192) 
VHQUFOLIUYRMQG-UHFFFAOYSA-N

>  <generation_date>  (192) 
None

>  <alias>  (192) 
None

>  <original SMILES>  (192) 
COc1ccc(Nc2cc(C)ncc2OC)cc1I

>  <HIPPO ID>  (192) 
49369

>  <tags>  (192) 
[]

>  <ref_pdb>  (192) 
c0270a

>  <method>  (192) 
None

>  <ref_url>  (192) 
None

>  <inchikey>  (192) 
VHQUFOLIUYRMQG-UHFFFAOYSA-N

>  <submitter_email>  (192) 
None

>  <ref_mols>  (192) 
c0935a,c1132a

>  <submitter_name>  (192) 
None

$$$$
WSIWQFJMNSXODC-UHFFFAOYSA-N
     RDKit          3D

 19 20  0  0  0  0  0  0  0  0999 V2000
   23.3684   12.7010    9.5230 C   0  0  0  0  0  0  0  0  0  0  0  0
   21.9805   12.7464    9.8426 O   0  0  0  0  0  0  0  0  0  0  0  0
   21.5542   11.5416   10.4717 C   0  0  0  0  0  0  0  0  0  0  0  0
   20.1269   11.4048   10.4524 O   0  0  0  0  0  0  0  0  0  0  0  0
   19.3890   12.2782   11.2037 C   0  0  0  0  0  0  0  0  0  0  0  0
   19.8816   13.3897   11.8749 C   0  0  0  0  0  0  0  0  0  0  0  0
   19.1187   14.2184   12.6238 N   0  0  0  0  0  0  0  0  0  0  0  0
   17.8153   13.9060   12.7297 C   0  0  0  0  0  0  0  0  0  0  0  0
   17.0486   14.7150   13.4718 F   0  0  0  0  0  0  0  0  0  0  0  0
   17.2226   12.8180   12.1194 C   0  0  0  0  0  0  0  0  0  0  0  0
   18.0084   12.0016   11.3077 C   0  0  0  0  0  0  0  0  0  0  0  0
   17.4624   10.9058   10.6111 N   0  0  0  0  0  0  0  0  0  0  0  0
   16.3967   10.0303   10.8577 C   0  0  0  0  0  0  0  0  0  0  0  0
   15.8280    9.3424    9.7771 C   0  0  0  0  0  0  0  0  0  0  0  0
   14.8662    8.3555    9.9775 C   0  0  0  0  0  0  0  0  0  0  0  0
   14.4883    8.0335   11.2671 C   0  0  0  0  0  0  0  0  0  0  0  0
   13.6007    7.0118   11.4345 O   0  0  0  0  0  0  0  0  0  0  0  0
   14.9734    8.7574   12.3511 C   0  0  0  0  0  0  0  0  0  0  0  0
   15.8961    9.7826   12.1381 C   0  0  0  0  0  0  0  0  0  0  0  0
  1  2  1  0
  2  3  1  0
  3  4  1  0
  4  5  1  0
  5  6  2  0
  6  7  1  0
  7  8  2  0
  8  9  1  0
  8 10  1  0
 10 11  2  0
 11 12  1  0
 12 13  1  0
 13 14  2  0
 14 15  1  0
 15 16  2  0
 16 17  1  0
 16 18  1  0
 18 19  2  0
 11  5  1  0
 19 13  1  0
M  END
>  <original ID>  (193) 
WSIWQFJMNSXODC-UHFFFAOYSA-N

>  <generation_date>  (193) 
None

>  <alias>  (193) 
None

>  <original SMILES>  (193) 
COCOc1cnc(F)cc1Nc1ccc(O)cc1

>  <HIPPO ID>  (193) 
49486

>  <tags>  (193) 
[]

>  <ref_pdb>  (193) 
c0270a

>  <method>  (193) 
None

>  <ref_url>  (193) 
None

>  <inchikey>  (193) 
WSIWQFJMNSXODC-UHFFFAOYSA-N

>  <submitter_email>  (193) 
None

>  <ref_mols>  (193) 
c0935a,c1132a

>  <submitter_name>  (193) 
None

$$$$
PRQSDIHOKOETFA-UHFFFAOYSA-N
     RDKit          3D

 19 20  0  0  0  0  0  0  0  0999 V2000
   21.5046   11.4357   10.5680 C   0  0  0  0  0  0  0  0  0  0  0  0
   20.0819   11.3778   10.4910 O   0  0  0  0  0  0  0  0  0  0  0  0
   19.3900   12.2979   11.2345 C   0  0  0  0  0  0  0  0  0  0  0  0
   19.9450   13.3962   11.8784 C   0  0  0  0  0  0  0  0  0  0  0  0
   19.2267   14.2864   12.5966 N   0  0  0  0  0  0  0  0  0  0  0  0
   17.8991   14.0520   12.6937 C   0  0  0  0  0  0  0  0  0  0  0  0
   17.1470   15.0517   13.4740 C   0  0  0  0  0  0  0  0  0  0  0  0
   15.9356   14.9806   13.6383 O   0  0  0  0  0  0  0  0  0  0  0  0
   17.2446   12.9864   12.0949 C   0  0  0  0  0  0  0  0  0  0  0  0
   17.9957   12.0901   11.3405 C   0  0  0  0  0  0  0  0  0  0  0  0
   17.4205   10.9920   10.6743 N   0  0  0  0  0  0  0  0  0  0  0  0
   16.3424   10.1124   10.8783 C   0  0  0  0  0  0  0  0  0  0  0  0
   15.8354    9.4981    9.7157 C   0  0  0  0  0  0  0  0  0  0  0  0
   14.8748    8.4955    9.7627 C   0  0  0  0  0  0  0  0  0  0  0  0
   14.4462    8.0415   10.9896 C   0  0  0  0  0  0  0  0  0  0  0  0
   13.5760    6.9979   11.0815 O   0  0  0  0  0  0  0  0  0  0  0  0
   14.8566    8.6755   12.1532 C   0  0  0  0  0  0  0  0  0  0  0  0
   15.7476    9.7549   12.0975 C   0  0  0  0  0  0  0  0  0  0  0  0
   16.1151   10.4820   13.6165 Cl  0  0  0  0  0  0  0  0  0  0  0  0
  1  2  1  0
  2  3  1  0
  3  4  2  0
  4  5  1  0
  5  6  2  0
  6  7  1  0
  7  8  2  0
  6  9  1  0
  9 10  2  0
 10 11  1  0
 11 12  1  0
 12 13  2  0
 13 14  1  0
 14 15  2  0
 15 16  1  0
 15 17  1  0
 17 18  2  0
 18 19  1  0
 10  3  1  0
 18 12  1  0
M  END
>  <original ID>  (194) 
PRQSDIHOKOETFA-UHFFFAOYSA-N

>  <generation_date>  (194) 
None

>  <alias>  (194) 
None

>  <original SMILES>  (194) 
COc1cnc(C=O)cc1Nc1ccc(O)cc1Cl

>  <HIPPO ID>  (194) 
49518

>  <tags>  (194) 
[]

>  <ref_pdb>  (194) 
c0270a

>  <method>  (194) 
None

>  <ref_url>  (194) 
None

>  <inchikey>  (194) 
PRQSDIHOKOETFA-UHFFFAOYSA-N

>  <submitter_email>  (194) 
None

>  <ref_mols>  (194) 
c0935a,c1132a

>  <submitter_name>  (194) 
None

$$$$
LEXWFMKNVLBPPS-UHFFFAOYSA-N
     RDKit          3D

 20 21  0  0  0  0  0  0  0  0999 V2000
   13.0647    6.1457   11.0689 C   0  0  0  0  0  0  0  0  0  0  0  0
   13.6817    6.8138   12.1736 O   0  0  0  0  0  0  0  0  0  0  0  0
   14.5481    7.8305   11.8846 C   0  0  0  0  0  0  0  0  0  0  0  0
   14.8797    8.2049   10.6089 C   0  0  0  0  0  0  0  0  0  0  0  0
   15.5488    9.4079   10.4310 C   0  0  0  0  0  0  0  0  0  0  0  0
   15.2843   10.1456    8.7581 Br  0  0  0  0  0  0  0  0  0  0  0  0
   16.1042   10.1957   11.4522 C   0  0  0  0  0  0  0  0  0  0  0  0
   16.7923   11.4190   11.1052 N   0  0  0  0  0  0  0  0  0  0  0  0
   18.1841   11.6753   11.2637 C   0  0  0  0  0  0  0  0  0  0  0  0
   18.9915   10.9535   10.4653 N   0  0  0  0  0  0  0  0  0  0  0  0
   20.3163   11.2236   10.4321 C   0  0  0  0  0  0  0  0  0  0  0  0
   20.9033   12.2379   11.1395 C   0  0  0  0  0  0  0  0  0  0  0  0
   20.0760   12.9859   11.9653 C   0  0  0  0  0  0  0  0  0  0  0  0
   20.9083   14.3287   13.0079 Br  0  0  0  0  0  0  0  0  0  0  0  0
   18.6976   12.7170   12.0442 C   0  0  0  0  0  0  0  0  0  0  0  0
   17.9570   13.3096   13.0281 O   0  0  0  0  0  0  0  0  0  0  0  0
   17.1467   14.3722   12.5643 C   0  0  0  0  0  0  0  0  0  0  0  0
   15.7329    9.8103   12.7359 C   0  0  0  0  0  0  0  0  0  0  0  0
   15.9709   10.9573   14.2198 Br  0  0  0  0  0  0  0  0  0  0  0  0
   14.9846    8.6283   12.9511 C   0  0  0  0  0  0  0  0  0  0  0  0
  1  2  1  0
  2  3  1  0
  3  4  2  0
  4  5  1  0
  5  6  1  0
  5  7  2  0
  7  8  1  0
  8  9  1  0
  9 10  2  0
 10 11  1  0
 11 12  2  0
 12 13  1  0
 13 14  1  0
 13 15  2  0
 15 16  1  0
 16 17  1  0
  7 18  1  0
 18 19  1  0
 18 20  2  0
 20  3  1  0
 15  9  1  0
M  END
>  <original ID>  (195) 
LEXWFMKNVLBPPS-UHFFFAOYSA-N

>  <generation_date>  (195) 
None

>  <alias>  (195) 
None

>  <original SMILES>  (195) 
COc1cc(Br)c(Nc2nccc(Br)c2OC)c(Br)c1

>  <HIPPO ID>  (195) 
50124

>  <tags>  (195) 
[]

>  <ref_pdb>  (195) 
c0270a

>  <method>  (195) 
None

>  <ref_url>  (195) 
None

>  <inchikey>  (195) 
LEXWFMKNVLBPPS-UHFFFAOYSA-N

>  <submitter_email>  (195) 
None

>  <ref_mols>  (195) 
c0935a,c1132a

>  <submitter_name>  (195) 
None

$$$$
UKHCAGGESJWGOI-UHFFFAOYSA-N
     RDKit          3D

 20 21  0  0  0  0  0  0  0  0999 V2000
   13.2267    6.4817   12.3634 C   0  0  0  0  0  0  0  0  0  0  0  0
   13.5991    7.2195   11.2219 O   0  0  0  0  0  0  0  0  0  0  0  0
   14.4940    8.2516   11.2650 C   0  0  0  0  0  0  0  0  0  0  0  0
   14.7208    8.8302   10.0111 C   0  0  0  0  0  0  0  0  0  0  0  0
   13.6937    8.4757    8.6809 Cl  0  0  0  0  0  0  0  0  0  0  0  0
   15.6507    9.8428    9.8238 C   0  0  0  0  0  0  0  0  0  0  0  0
   16.3803   10.3567   10.8953 C   0  0  0  0  0  0  0  0  0  0  0  0
   17.2271   11.4711   10.6411 N   0  0  0  0  0  0  0  0  0  0  0  0
   18.5432   11.7085   11.0820 C   0  0  0  0  0  0  0  0  0  0  0  0
   19.4524   10.9187   10.4768 N   0  0  0  0  0  0  0  0  0  0  0  0
   20.7699   11.1826   10.5935 C   0  0  0  0  0  0  0  0  0  0  0  0
   21.2578   12.2208   11.3322 C   0  0  0  0  0  0  0  0  0  0  0  0
   20.3248   13.0338   11.9618 C   0  0  0  0  0  0  0  0  0  0  0  0
   21.0156   14.4121   13.0597 Br  0  0  0  0  0  0  0  0  0  0  0  0
   18.9393   12.8210   11.8287 C   0  0  0  0  0  0  0  0  0  0  0  0
   18.1370   13.7923   12.3596 O   0  0  0  0  0  0  0  0  0  0  0  0
   16.8856   13.3948   12.8840 C   0  0  0  0  0  0  0  0  0  0  0  0
   16.0477    9.9080   12.1671 C   0  0  0  0  0  0  0  0  0  0  0  0
   15.1125    8.8688   12.3579 C   0  0  0  0  0  0  0  0  0  0  0  0
   14.6960    8.5673   14.0083 Cl  0  0  0  0  0  0  0  0  0  0  0  0
  1  2  1  0
  2  3  1  0
  3  4  2  0
  4  5  1  0
  4  6  1  0
  6  7  2  0
  7  8  1  0
  8  9  1  0
  9 10  2  0
 10 11  1  0
 11 12  2  0
 12 13  1  0
 13 14  1  0
 13 15  2  0
 15 16  1  0
 16 17  1  0
  7 18  1  0
 18 19  2  0
 19 20  1  0
 19  3  1  0
 15  9  1  0
M  END
>  <original ID>  (196) 
UKHCAGGESJWGOI-UHFFFAOYSA-N

>  <generation_date>  (196) 
None

>  <alias>  (196) 
None

>  <original SMILES>  (196) 
COc1c(Cl)cc(Nc2nccc(Br)c2OC)cc1Cl

>  <HIPPO ID>  (196) 
50125

>  <tags>  (196) 
[]

>  <ref_pdb>  (196) 
c0270a

>  <method>  (196) 
None

>  <ref_url>  (196) 
None

>  <inchikey>  (196) 
UKHCAGGESJWGOI-UHFFFAOYSA-N

>  <submitter_email>  (196) 
None

>  <ref_mols>  (196) 
c0935a,c1132a

>  <submitter_name>  (196) 
None

$$$$
LLAXFWNOKVGFJY-UHFFFAOYSA-N
     RDKit          3D

 20 21  0  0  0  0  0  0  0  0999 V2000
   21.3629   11.4229   10.8029 C   0  0  0  0  0  0  0  0  0  0  0  0
   20.0641   11.7829   10.3408 O   0  0  0  0  0  0  0  0  0  0  0  0
   19.2803   12.4929   11.2087 C   0  0  0  0  0  0  0  0  0  0  0  0
   19.6375   13.6695   11.8696 C   0  0  0  0  0  0  0  0  0  0  0  0
   21.2636   14.5910   11.6207 Br  0  0  0  0  0  0  0  0  0  0  0  0
   18.7257   14.3121   12.7032 C   0  0  0  0  0  0  0  0  0  0  0  0
   17.4695   13.7711   12.8321 C   0  0  0  0  0  0  0  0  0  0  0  0
   17.0818   12.6547   12.1936 N   0  0  0  0  0  0  0  0  0  0  0  0
   17.9588   12.0373   11.3644 C   0  0  0  0  0  0  0  0  0  0  0  0
   17.5443   10.8875   10.6552 N   0  0  0  0  0  0  0  0  0  0  0  0
   16.4106   10.0839   10.8541 C   0  0  0  0  0  0  0  0  0  0  0  0
   15.9356    9.2797    9.8102 C   0  0  0  0  0  0  0  0  0  0  0  0
   14.9741    8.2945   10.0384 C   0  0  0  0  0  0  0  0  0  0  0  0
   14.5052    8.0821   11.3224 C   0  0  0  0  0  0  0  0  0  0  0  0
   13.6373    7.0395   11.5020 O   0  0  0  0  0  0  0  0  0  0  0  0
   14.8898    8.9466   12.3484 C   0  0  0  0  0  0  0  0  0  0  0  0
   14.3060    8.8239   13.6877 C   0  0  0  0  0  0  0  0  0  0  0  0
   13.9443    7.7858   14.2069 O   0  0  0  0  0  0  0  0  0  0  0  0
   14.0976   10.0083   14.2739 O   0  0  0  0  0  0  0  0  0  0  0  0
   15.8316    9.9432   12.1132 C   0  0  0  0  0  0  0  0  0  0  0  0
  1  2  1  0
  2  3  1  0
  3  4  2  0
  4  5  1  0
  4  6  1  0
  6  7  2  0
  7  8  1  0
  8  9  2  0
  9 10  1  0
 10 11  1  0
 11 12  2  0
 12 13  1  0
 13 14  2  0
 14 15  1  0
 14 16  1  0
 16 17  1  0
 17 18  2  0
 17 19  1  0
 16 20  2  0
  9  3  1  0
 20 11  1  0
M  END
>  <original ID>  (197) 
LLAXFWNOKVGFJY-UHFFFAOYSA-N

>  <generation_date>  (197) 
None

>  <alias>  (197) 
None

>  <original SMILES>  (197) 
COc1c(Br)ccnc1Nc1ccc(O)c(C(=O)O)c1

>  <HIPPO ID>  (197) 
50269

>  <tags>  (197) 
[]

>  <ref_pdb>  (197) 
c0270a

>  <method>  (197) 
None

>  <ref_url>  (197) 
None

>  <inchikey>  (197) 
LLAXFWNOKVGFJY-UHFFFAOYSA-N

>  <submitter_email>  (197) 
None

>  <ref_mols>  (197) 
c0935a,c1132a

>  <submitter_name>  (197) 
None

$$$$
KHOWXBJYZFBXAF-UHFFFAOYSA-N
     RDKit          3D

 20 21  0  0  0  0  0  0  0  0999 V2000
   13.4400    6.4147   12.5403 C   0  0  0  0  0  0  0  0  0  0  0  0
   13.5812    7.0970   11.3064 O   0  0  0  0  0  0  0  0  0  0  0  0
   14.4678    8.1347   11.2491 C   0  0  0  0  0  0  0  0  0  0  0  0
   14.7510    8.5873    9.9710 C   0  0  0  0  0  0  0  0  0  0  0  0
   14.0930    8.0901    8.9182 F   0  0  0  0  0  0  0  0  0  0  0  0
   15.6601    9.6086    9.7607 C   0  0  0  0  0  0  0  0  0  0  0  0
   16.3170   10.2307   10.8350 C   0  0  0  0  0  0  0  0  0  0  0  0
   17.1913   11.2974   10.5216 N   0  0  0  0  0  0  0  0  0  0  0  0
   18.4587   11.6270   11.0348 C   0  0  0  0  0  0  0  0  0  0  0  0
   19.4740   11.0365   10.3697 N   0  0  0  0  0  0  0  0  0  0  0  0
   20.7375   11.4581   10.5580 C   0  0  0  0  0  0  0  0  0  0  0  0
   21.0427   12.5466   11.3298 C   0  0  0  0  0  0  0  0  0  0  0  0
   19.9999   13.1622   12.0155 C   0  0  0  0  0  0  0  0  0  0  0  0
   20.4525   14.7139   13.0002 Br  0  0  0  0  0  0  0  0  0  0  0  0
   18.6872   12.6708   11.9312 C   0  0  0  0  0  0  0  0  0  0  0  0
   17.7507   13.0271   12.8643 O   0  0  0  0  0  0  0  0  0  0  0  0
   16.8596   14.0387   12.4314 C   0  0  0  0  0  0  0  0  0  0  0  0
   15.9276    9.8925   12.1231 C   0  0  0  0  0  0  0  0  0  0  0  0
   15.0156    8.8467   12.3192 C   0  0  0  0  0  0  0  0  0  0  0  0
   14.6067    8.6090   13.5739 F   0  0  0  0  0  0  0  0  0  0  0  0
  1  2  1  0
  2  3  1  0
  3  4  2  0
  4  5  1  0
  4  6  1  0
  6  7  2  0
  7  8  1  0
  8  9  1  0
  9 10  2  0
 10 11  1  0
 11 12  2  0
 12 13  1  0
 13 14  1  0
 13 15  2  0
 15 16  1  0
 16 17  1  0
  7 18  1  0
 18 19  2  0
 19 20  1  0
 19  3  1  0
 15  9  1  0
M  END
>  <original ID>  (198) 
KHOWXBJYZFBXAF-UHFFFAOYSA-N

>  <generation_date>  (198) 
None

>  <alias>  (198) 
None

>  <original SMILES>  (198) 
COc1c(F)cc(Nc2nccc(Br)c2OC)cc1F

>  <HIPPO ID>  (198) 
50292

>  <tags>  (198) 
[]

>  <ref_pdb>  (198) 
c0270a

>  <method>  (198) 
None

>  <ref_url>  (198) 
None

>  <inchikey>  (198) 
KHOWXBJYZFBXAF-UHFFFAOYSA-N

>  <submitter_email>  (198) 
None

>  <ref_mols>  (198) 
c0935a,c1132a

>  <submitter_name>  (198) 
None

$$$$
AJGMJIHCTOXJEW-UHFFFAOYSA-N
     RDKit          3D

 20 21  0  0  0  0  0  0  0  0999 V2000
   13.2997    6.1281   11.1997 C   0  0  0  0  0  0  0  0  0  0  0  0
   13.6991    7.1639   12.0870 O   0  0  0  0  0  0  0  0  0  0  0  0
   14.5464    8.1288   11.6120 C   0  0  0  0  0  0  0  0  0  0  0  0
   14.8698    8.2908   10.2750 C   0  0  0  0  0  0  0  0  0  0  0  0
   15.7701    9.2853    9.9187 C   0  0  0  0  0  0  0  0  0  0  0  0
   16.0478    9.3982    8.5907 O   0  0  0  0  0  0  0  0  0  0  0  0
   16.4199   10.1033   10.8566 C   0  0  0  0  0  0  0  0  0  0  0  0
   17.4476   10.9361   10.3731 N   0  0  0  0  0  0  0  0  0  0  0  0
   18.5348   11.5659   10.9837 C   0  0  0  0  0  0  0  0  0  0  0  0
   19.7066   10.9762   10.6549 N   0  0  0  0  0  0  0  0  0  0  0  0
   20.8692   11.6002   10.8990 C   0  0  0  0  0  0  0  0  0  0  0  0
   20.9184   12.8620   11.4264 C   0  0  0  0  0  0  0  0  0  0  0  0
   19.7084   13.4715   11.7548 C   0  0  0  0  0  0  0  0  0  0  0  0
   19.7858   15.3273   12.1242 Br  0  0  0  0  0  0  0  0  0  0  0  0
   18.4858   12.7969   11.6263 C   0  0  0  0  0  0  0  0  0  0  0  0
   17.2814   13.4049   11.8474 O   0  0  0  0  0  0  0  0  0  0  0  0
   16.9836   13.6093   13.2240 C   0  0  0  0  0  0  0  0  0  0  0  0
   15.9918   10.0334   12.1697 C   0  0  0  0  0  0  0  0  0  0  0  0
   15.0627    9.0516   12.5429 C   0  0  0  0  0  0  0  0  0  0  0  0
   14.5097    9.0239   14.3634 Br  0  0  0  0  0  0  0  0  0  0  0  0
  1  2  1  0
  2  3  1  0
  3  4  2  0
  4  5  1  0
  5  6  1  0
  5  7  2  0
  7  8  1  0
  8  9  1  0
  9 10  2  0
 10 11  1  0
 11 12  2  0
 12 13  1  0
 13 14  1  0
 13 15  2  0
 15 16  1  0
 16 17  1  0
  7 18  1  0
 18 19  2  0
 19 20  1  0
 19  3  1  0
 15  9  1  0
M  END
>  <original ID>  (199) 
AJGMJIHCTOXJEW-UHFFFAOYSA-N

>  <generation_date>  (199) 
None

>  <alias>  (199) 
None

>  <original SMILES>  (199) 
COc1cc(O)c(Nc2nccc(Br)c2OC)cc1Br

>  <HIPPO ID>  (199) 
50301

>  <tags>  (199) 
[]

>  <ref_pdb>  (199) 
c0270a

>  <method>  (199) 
None

>  <ref_url>  (199) 
None

>  <inchikey>  (199) 
AJGMJIHCTOXJEW-UHFFFAOYSA-N

>  <submitter_email>  (199) 
None

>  <ref_mols>  (199) 
c0935a,c1132a

>  <submitter_name>  (199) 
None

$$$$
OQQKXEKUQZRGDF-UHFFFAOYSA-N
     RDKit          3D

 20 21  0  0  0  0  0  0  0  0999 V2000
   21.2922   11.4545   10.8293 C   0  0  0  0  0  0  0  0  0  0  0  0
   19.9671   11.7547   10.3992 O   0  0  0  0  0  0  0  0  0  0  0  0
   19.1965   12.5218   11.2339 C   0  0  0  0  0  0  0  0  0  0  0  0
   19.5702   13.7085   11.8649 C   0  0  0  0  0  0  0  0  0  0  0  0
   21.2014   14.6147   11.5804 Br  0  0  0  0  0  0  0  0  0  0  0  0
   18.6587   14.3892   12.6696 C   0  0  0  0  0  0  0  0  0  0  0  0
   17.3730   13.9068   12.7527 C   0  0  0  0  0  0  0  0  0  0  0  0
   16.9523   12.8143   12.0917 N   0  0  0  0  0  0  0  0  0  0  0  0
   17.8524   12.1167   11.3665 C   0  0  0  0  0  0  0  0  0  0  0  0
   17.4317   10.9464   10.7057 N   0  0  0  0  0  0  0  0  0  0  0  0
   16.3062   10.1209   10.8551 C   0  0  0  0  0  0  0  0  0  0  0  0
   15.9001    9.4188    9.7062 C   0  0  0  0  0  0  0  0  0  0  0  0
   14.9323    8.4202    9.7480 C   0  0  0  0  0  0  0  0  0  0  0  0
   14.4328    8.0082   10.9622 C   0  0  0  0  0  0  0  0  0  0  0  0
   13.5680    6.9588   11.0363 O   0  0  0  0  0  0  0  0  0  0  0  0
   14.7581    8.7042   12.1125 C   0  0  0  0  0  0  0  0  0  0  0  0
   15.6091    9.8192   12.0311 C   0  0  0  0  0  0  0  0  0  0  0  0
   15.6979   10.6048   13.2425 N   0  0  0  0  0  4  0  0  0  0  0  0
   16.7865   10.6639   13.8194 O   0  0  0  0  0  0  0  0  0  0  0  0
   14.6372   11.0639   13.6929 O   0  0  0  0  0  1  0  0  0  0  0  0
  1  2  1  0
  2  3  1  0
  3  4  2  0
  4  5  1  0
  4  6  1  0
  6  7  2  0
  7  8  1  0
  8  9  2  0
  9 10  1  0
 10 11  1  0
 11 12  2  0
 12 13  1  0
 13 14  2  0
 14 15  1  0
 14 16  1  0
 16 17  2  0
 17 18  1  0
 18 19  2  0
 18 20  1  0
  9  3  1  0
 17 11  1  0
M  CHG  2  18   1  20  -1
M  END
>  <original ID>  (200) 
OQQKXEKUQZRGDF-UHFFFAOYSA-N

>  <generation_date>  (200) 
None

>  <alias>  (200) 
None

>  <original SMILES>  (200) 
COc1c(Br)ccnc1Nc1ccc(O)cc1[N+](=O)[O-]

>  <HIPPO ID>  (200) 
50326

>  <tags>  (200) 
[]

>  <ref_pdb>  (200) 
c0270a

>  <method>  (200) 
None

>  <ref_url>  (200) 
None

>  <inchikey>  (200) 
OQQKXEKUQZRGDF-UHFFFAOYSA-N

>  <submitter_email>  (200) 
None

>  <ref_mols>  (200) 
c0935a,c1132a

>  <submitter_name>  (200) 
None

$$$$
SNBYAMGUISLFSH-UHFFFAOYSA-N
     RDKit          3D

 20 21  0  0  0  0  0  0  0  0999 V2000
   21.4567   11.1226   10.5742 C   0  0  0  0  0  0  0  0  0  0  0  0
   20.0704   11.3624   10.3717 O   0  0  0  0  0  0  0  0  0  0  0  0
   19.4376   12.2684   11.1794 C   0  0  0  0  0  0  0  0  0  0  0  0
   18.0444   12.0493   11.3074 C   0  0  0  0  0  0  0  0  0  0  0  0
   17.4546   10.9733   10.6092 N   0  0  0  0  0  0  0  0  0  0  0  0
   16.3994   10.0946   10.8782 C   0  0  0  0  0  0  0  0  0  0  0  0
   15.8963    9.3182    9.8254 C   0  0  0  0  0  0  0  0  0  0  0  0
   14.9507    8.3224   10.0503 C   0  0  0  0  0  0  0  0  0  0  0  0
   14.4957    8.0921   11.3367 C   0  0  0  0  0  0  0  0  0  0  0  0
   13.6201    7.0508   11.4833 O   0  0  0  0  0  0  0  0  0  0  0  0
   14.8931    8.9331   12.3846 C   0  0  0  0  0  0  0  0  0  0  0  0
   14.3322    8.8589   13.7548 C   0  0  0  0  0  0  0  0  0  0  0  0
   14.4585    9.6861   14.6373 O   0  0  0  0  0  0  0  0  0  0  0  0
   13.6098    7.7369   13.9662 O   0  0  0  0  0  0  0  0  0  0  0  0
   15.8338    9.9408   12.1432 C   0  0  0  0  0  0  0  0  0  0  0  0
   17.2924   12.8906   12.1280 C   0  0  0  0  0  0  0  0  0  0  0  0
   17.9272   13.9519   12.7425 C   0  0  0  0  0  0  0  0  0  0  0  0
   19.2416   14.2089   12.6145 N   0  0  0  0  0  0  0  0  0  0  0  0
   19.9740   13.3634   11.8496 C   0  0  0  0  0  0  0  0  0  0  0  0
   21.6181   13.8613   11.7604 Cl  0  0  0  0  0  0  0  0  0  0  0  0
  1  2  1  0
  2  3  1  0
  3  4  2  0
  4  5  1  0
  5  6  1  0
  6  7  2  0
  7  8  1  0
  8  9  2  0
  9 10  1  0
  9 11  1  0
 11 12  1  0
 12 13  2  0
 12 14  1  0
 11 15  2  0
  4 16  1  0
 16 17  2  0
 17 18  1  0
 18 19  2  0
 19 20  1  0
 19  3  1  0
 15  6  1  0
M  END
>  <original ID>  (201) 
SNBYAMGUISLFSH-UHFFFAOYSA-N

>  <generation_date>  (201) 
None

>  <alias>  (201) 
None

>  <original SMILES>  (201) 
COc1c(Nc2ccc(O)c(C(=O)O)c2)ccnc1Cl

>  <HIPPO ID>  (201) 
50422

>  <tags>  (201) 
[]

>  <ref_pdb>  (201) 
c0270a

>  <method>  (201) 
None

>  <ref_url>  (201) 
None

>  <inchikey>  (201) 
SNBYAMGUISLFSH-UHFFFAOYSA-N

>  <submitter_email>  (201) 
None

>  <ref_mols>  (201) 
c0935a,c1132a

>  <submitter_name>  (201) 
None

$$$$
QQIHKEMZCJSKEB-UHFFFAOYSA-N
     RDKit          3D

 20 21  0  0  0  0  0  0  0  0999 V2000
   21.4616   11.0592   10.5791 C   0  0  0  0  0  0  0  0  0  0  0  0
   20.0709   11.3038   10.3983 O   0  0  0  0  0  0  0  0  0  0  0  0
   19.4859   12.2795   11.1640 C   0  0  0  0  0  0  0  0  0  0  0  0
   18.0842   12.1276   11.3227 C   0  0  0  0  0  0  0  0  0  0  0  0
   17.4421   11.0440   10.6836 N   0  0  0  0  0  0  0  0  0  0  0  0
   16.3480   10.1846   10.8749 C   0  0  0  0  0  0  0  0  0  0  0  0
   15.8914    9.5288    9.7127 C   0  0  0  0  0  0  0  0  0  0  0  0
   14.9345    8.5171    9.7396 C   0  0  0  0  0  0  0  0  0  0  0  0
   14.4636    8.0692   10.9515 C   0  0  0  0  0  0  0  0  0  0  0  0
   13.6018    7.0200   11.0248 O   0  0  0  0  0  0  0  0  0  0  0  0
   14.8159    8.7297   12.1135 C   0  0  0  0  0  0  0  0  0  0  0  0
   15.6781    9.8384   12.0493 C   0  0  0  0  0  0  0  0  0  0  0  0
   15.8286   10.5421   13.2925 N   0  0  0  0  0  4  0  0  0  0  0  0
   16.3649    9.9332   14.2231 O   0  0  0  0  0  0  0  0  0  0  0  0
   15.3045   11.6550   13.3871 O   0  0  0  0  0  1  0  0  0  0  0  0
   17.3950   13.0877   12.0530 C   0  0  0  0  0  0  0  0  0  0  0  0
   18.0922   14.1351   12.6257 C   0  0  0  0  0  0  0  0  0  0  0  0
   19.4125   14.3208   12.4663 N   0  0  0  0  0  0  0  0  0  0  0  0
   20.0821   13.4058   11.7295 C   0  0  0  0  0  0  0  0  0  0  0  0
   21.7052   13.9035   11.4439 Cl  0  0  0  0  0  0  0  0  0  0  0  0
  1  2  1  0
  2  3  1  0
  3  4  2  0
  4  5  1  0
  5  6  1  0
  6  7  2  0
  7  8  1  0
  8  9  2  0
  9 10  1  0
  9 11  1  0
 11 12  2  0
 12 13  1  0
 13 14  2  0
 13 15  1  0
  4 16  1  0
 16 17  2  0
 17 18  1  0
 18 19  2  0
 19 20  1  0
 19  3  1  0
 12  6  1  0
M  CHG  2  13   1  15  -1
M  END
>  <original ID>  (202) 
QQIHKEMZCJSKEB-UHFFFAOYSA-N

>  <generation_date>  (202) 
None

>  <alias>  (202) 
None

>  <original SMILES>  (202) 
COc1c(Nc2ccc(O)cc2[N+](=O)[O-])ccnc1Cl

>  <HIPPO ID>  (202) 
50423

>  <tags>  (202) 
[]

>  <ref_pdb>  (202) 
c0270a

>  <method>  (202) 
None

>  <ref_url>  (202) 
None

>  <inchikey>  (202) 
QQIHKEMZCJSKEB-UHFFFAOYSA-N

>  <submitter_email>  (202) 
None

>  <ref_mols>  (202) 
c0935a,c1132a

>  <submitter_name>  (202) 
None

$$$$
MNNZDNDUIJQTEC-UHFFFAOYSA-N
     RDKit          3D

 20 21  0  0  0  0  0  0  0  0999 V2000
   16.5367   14.0978   14.1683 C   0  0  0  0  0  0  0  0  0  0  0  0
   16.7442   12.8089   13.6300 O   0  0  0  0  0  0  0  0  0  0  0  0
   17.6201   12.6293   12.5904 C   0  0  0  0  0  0  0  0  0  0  0  0
   17.4311   11.3897   11.9436 C   0  0  0  0  0  0  0  0  0  0  0  0
   16.4037   10.5270   12.4602 N   0  0  0  0  0  0  0  0  0  0  0  0
   15.6504    9.4600   11.9245 C   0  0  0  0  0  0  0  0  0  0  0  0
   15.0341    8.5608   12.8028 C   0  0  0  0  0  0  0  0  0  0  0  0
   14.2839    7.4756   12.3113 C   0  0  0  0  0  0  0  0  0  0  0  0
   13.5821    6.6552   13.1384 O   0  0  0  0  0  0  0  0  0  0  0  0
   14.1304    7.2240   10.9599 C   0  0  0  0  0  0  0  0  0  0  0  0
   14.6814    8.1148   10.0789 C   0  0  0  0  0  0  0  0  0  0  0  0
   15.4161    9.1985   10.5805 C   0  0  0  0  0  0  0  0  0  0  0  0
   15.8898   10.0774    9.5900 N   0  0  0  0  0  4  0  0  0  0  0  0
   15.5301   11.2548    9.6684 O   0  0  0  0  0  0  0  0  0  0  0  0
   16.5672    9.5274    8.7292 O   0  0  0  0  0  1  0  0  0  0  0  0
   18.3771   10.9970   10.9881 C   0  0  0  0  0  0  0  0  0  0  0  0
   19.4683   11.8073   10.7304 C   0  0  0  0  0  0  0  0  0  0  0  0
   19.6286   13.0198   11.2762 N   0  0  0  0  0  0  0  0  0  0  0  0
   18.7081   13.4038   12.1883 C   0  0  0  0  0  0  0  0  0  0  0  0
   19.1144   14.9342   12.8329 Cl  0  0  0  0  0  0  0  0  0  0  0  0
  1  2  1  0
  2  3  1  0
  3  4  2  0
  4  5  1  0
  5  6  1  0
  6  7  2  0
  7  8  1  0
  8  9  1  0
  8 10  2  0
 10 11  1  0
 11 12  2  0
 12 13  1  0
 13 14  2  0
 13 15  1  0
  4 16  1  0
 16 17  2  0
 17 18  1  0
 18 19  2  0
 19 20  1  0
 19  3  1  0
 12  6  1  0
M  CHG  2  13   1  15  -1
M  END
>  <original ID>  (203) 
MNNZDNDUIJQTEC-UHFFFAOYSA-N

>  <generation_date>  (203) 
None

>  <alias>  (203) 
None

>  <original SMILES>  (203) 
COc1c(Nc2cc(O)ccc2[N+](=O)[O-])ccnc1Cl

>  <HIPPO ID>  (203) 
50439

>  <tags>  (203) 
[]

>  <ref_pdb>  (203) 
c0270a

>  <method>  (203) 
None

>  <ref_url>  (203) 
None

>  <inchikey>  (203) 
MNNZDNDUIJQTEC-UHFFFAOYSA-N

>  <submitter_email>  (203) 
None

>  <ref_mols>  (203) 
c0935a,c1132a

>  <submitter_name>  (203) 
None

$$$$
DCQCCQHMXYYJDR-UHFFFAOYSA-N
     RDKit          3D

 20 21  0  0  0  0  0  0  0  0999 V2000
   21.8647   13.7033    9.6932 C   0  0  0  0  0  0  0  0  0  0  0  0
   21.4734   13.6477   11.0622 O   0  0  0  0  0  0  0  0  0  0  0  0
   20.1451   13.3655   11.2447 C   0  0  0  0  0  0  0  0  0  0  0  0
   19.4261   14.3379   11.8166 N   0  0  0  0  0  0  0  0  0  0  0  0
   18.1480   14.0571   12.1483 C   0  0  0  0  0  0  0  0  0  0  0  0
   17.4991   12.8892   11.8169 C   0  0  0  0  0  0  0  0  0  0  0  0
   18.2307   11.9001   11.1769 C   0  0  0  0  0  0  0  0  0  0  0  0
   17.6377   10.7015   10.7445 N   0  0  0  0  0  0  0  0  0  0  0  0
   16.4377   10.0151   11.0097 C   0  0  0  0  0  0  0  0  0  0  0  0
   15.7668    9.4713    9.9037 C   0  0  0  0  0  0  0  0  0  0  0  0
   14.7120    8.5704   10.0588 C   0  0  0  0  0  0  0  0  0  0  0  0
   13.7920    8.2742    8.9264 C   0  0  0  0  0  0  0  0  0  0  0  0
   14.4344    8.0865   11.3226 C   0  0  0  0  0  0  0  0  0  0  0  0
   13.5409    7.0645   11.4668 O   0  0  0  0  0  0  0  0  0  0  0  0
   14.9645    8.7244   12.4306 C   0  0  0  0  0  0  0  0  0  0  0  0
   15.8940    9.7682   12.2825 C   0  0  0  0  0  0  0  0  0  0  0  0
   16.2081   10.5271   13.5318 C   0  0  0  0  0  0  0  0  0  0  0  0
   19.6179   12.1127   11.0025 C   0  0  0  0  0  0  0  0  0  0  0  0
   20.4161   11.0713   10.6342 O   0  0  0  0  0  0  0  0  0  0  0  0
   21.6097   10.9906   11.4306 C   0  0  0  0  0  0  0  0  0  0  0  0
  1  2  1  0
  2  3  1  0
  3  4  2  0
  4  5  1  0
  5  6  2  0
  6  7  1  0
  7  8  1  0
  8  9  1  0
  9 10  2  0
 10 11  1  0
 11 12  1  0
 11 13  2  0
 13 14  1  0
 13 15  1  0
 15 16  2  0
 16 17  1  0
  7 18  2  0
 18 19  1  0
 19 20  1  0
 18  3  1  0
 16  9  1  0
M  END
>  <original ID>  (204) 
DCQCCQHMXYYJDR-UHFFFAOYSA-N

>  <generation_date>  (204) 
None

>  <alias>  (204) 
None

>  <original SMILES>  (204) 
COc1nccc(Nc2cc(C)c(O)cc2C)c1OC

>  <HIPPO ID>  (204) 
50515

>  <tags>  (204) 
[]

>  <ref_pdb>  (204) 
c0270a

>  <method>  (204) 
None

>  <ref_url>  (204) 
None

>  <inchikey>  (204) 
DCQCCQHMXYYJDR-UHFFFAOYSA-N

>  <submitter_email>  (204) 
None

>  <ref_mols>  (204) 
c0935a,c1132a

>  <submitter_name>  (204) 
None

$$$$
XASLQCPFUQYCHU-UHFFFAOYSA-N
     RDKit          3D

 20 21  0  0  0  0  0  0  0  0999 V2000
   22.9727   12.5084   10.6953 C   0  0  0  0  0  0  0  0  0  0  0  0
   21.7633   13.0589   11.2466 O   0  0  0  0  0  0  0  0  0  0  0  0
   20.6597   12.3044   10.9760 C   0  0  0  0  0  0  0  0  0  0  0  0
   20.9248   11.2689   10.2014 N   0  0  0  0  0  0  0  0  0  0  0  0
   19.9106   10.5383    9.8194 C   0  0  0  0  0  0  0  0  0  0  0  0
   18.6260   10.6859   10.2503 C   0  0  0  0  0  0  0  0  0  0  0  0
   18.3065   11.7257   11.0846 C   0  0  0  0  0  0  0  0  0  0  0  0
   16.9333   11.8869   11.4453 N   0  0  0  0  0  0  0  0  0  0  0  0
   15.9681   10.8266   11.3287 C   0  0  0  0  0  0  0  0  0  0  0  0
   15.5494   10.3614   10.0651 C   0  0  0  0  0  0  0  0  0  0  0  0
   14.8688    9.1572    9.9359 C   0  0  0  0  0  0  0  0  0  0  0  0
   14.4678    8.7232    8.7342 F   0  0  0  0  0  0  0  0  0  0  0  0
   14.5945    8.3877   11.0540 C   0  0  0  0  0  0  0  0  0  0  0  0
   13.9241    7.2040   10.9228 O   0  0  0  0  0  0  0  0  0  0  0  0
   14.9346    8.8474   12.3212 C   0  0  0  0  0  0  0  0  0  0  0  0
   15.5916   10.0763   12.4547 C   0  0  0  0  0  0  0  0  0  0  0  0
   15.9559   10.6611   14.0331 Cl  0  0  0  0  0  0  0  0  0  0  0  0
   19.3598   12.6075   11.4301 C   0  0  0  0  0  0  0  0  0  0  0  0
   19.0098   13.6732   12.2049 O   0  0  0  0  0  0  0  0  0  0  0  0
   20.0585   14.5772   12.5255 C   0  0  0  0  0  0  0  0  0  0  0  0
  1  2  1  0
  2  3  1  0
  3  4  2  0
  4  5  1  0
  5  6  2  0
  6  7  1  0
  7  8  1  0
  8  9  1  0
  9 10  2  0
 10 11  1  0
 11 12  1  0
 11 13  2  0
 13 14  1  0
 13 15  1  0
 15 16  2  0
 16 17  1  0
  7 18  2  0
 18 19  1  0
 19 20  1  0
 18  3  1  0
 16  9  1  0
M  END
>  <original ID>  (205) 
XASLQCPFUQYCHU-UHFFFAOYSA-N

>  <generation_date>  (205) 
None

>  <alias>  (205) 
None

>  <original SMILES>  (205) 
COc1nccc(Nc2cc(F)c(O)cc2Cl)c1OC

>  <HIPPO ID>  (205) 
50537

>  <tags>  (205) 
[]

>  <ref_pdb>  (205) 
c0270a

>  <method>  (205) 
None

>  <ref_url>  (205) 
None

>  <inchikey>  (205) 
XASLQCPFUQYCHU-UHFFFAOYSA-N

>  <submitter_email>  (205) 
None

>  <ref_mols>  (205) 
c0935a,c1132a

>  <submitter_name>  (205) 
None

$$$$
NFLBZHWIKJQCGW-UHFFFAOYSA-N
     RDKit          3D

 20 21  0  0  0  0  0  0  0  0999 V2000
   22.6949   13.1145   10.2092 C   0  0  0  0  0  0  0  0  0  0  0  0
   21.5792   13.4164   11.0615 O   0  0  0  0  0  0  0  0  0  0  0  0
   20.5605   12.5155   10.9477 C   0  0  0  0  0  0  0  0  0  0  0  0
   20.8670   11.4491   10.2217 N   0  0  0  0  0  0  0  0  0  0  0  0
   19.8834   10.6373    9.9059 C   0  0  0  0  0  0  0  0  0  0  0  0
   18.5996   10.7518   10.3529 C   0  0  0  0  0  0  0  0  0  0  0  0
   18.2670   11.8000   11.1778 C   0  0  0  0  0  0  0  0  0  0  0  0
   16.9151   11.9281   11.6005 N   0  0  0  0  0  0  0  0  0  0  0  0
   15.9851   10.8556   11.5836 C   0  0  0  0  0  0  0  0  0  0  0  0
   15.5096   10.3124   10.3794 C   0  0  0  0  0  0  0  0  0  0  0  0
   14.7964    9.1022   10.3340 C   0  0  0  0  0  0  0  0  0  0  0  0
   14.2105    8.6893    9.0213 C   0  0  0  0  0  0  0  0  0  0  0  0
   14.5764    8.4220   11.5288 C   0  0  0  0  0  0  0  0  0  0  0  0
   13.9127    7.2257   11.5691 O   0  0  0  0  0  0  0  0  0  0  0  0
   14.9414    8.9984   12.7538 C   0  0  0  0  0  0  0  0  0  0  0  0
   14.5817    8.3488   14.0555 C   0  0  0  0  0  0  0  0  0  0  0  0
   15.6661   10.1991   12.7686 C   0  0  0  0  0  0  0  0  0  0  0  0
   19.2831   12.7324   11.4851 C   0  0  0  0  0  0  0  0  0  0  0  0
   18.9068   13.7664   12.2917 O   0  0  0  0  0  0  0  0  0  0  0  0
   19.9543   14.4479   12.9750 C   0  0  0  0  0  0  0  0  0  0  0  0
  1  2  1  0
  2  3  1  0
  3  4  2  0
  4  5  1  0
  5  6  2  0
  6  7  1  0
  7  8  1  0
  8  9  1  0
  9 10  2  0
 10 11  1  0
 11 12  1  0
 11 13  2  0
 13 14  1  0
 13 15  1  0
 15 16  1  0
 15 17  2  0
  7 18  2  0
 18 19  1  0
 19 20  1  0
 18  3  1  0
 17  9  1  0
M  END
>  <original ID>  (206) 
NFLBZHWIKJQCGW-UHFFFAOYSA-N

>  <generation_date>  (206) 
None

>  <alias>  (206) 
None

>  <original SMILES>  (206) 
COc1nccc(Nc2cc(C)c(O)c(C)c2)c1OC

>  <HIPPO ID>  (206) 
50539

>  <tags>  (206) 
[]

>  <ref_pdb>  (206) 
c0270a

>  <method>  (206) 
None

>  <ref_url>  (206) 
None

>  <inchikey>  (206) 
NFLBZHWIKJQCGW-UHFFFAOYSA-N

>  <submitter_email>  (206) 
None

>  <ref_mols>  (206) 
c0935a,c1132a

>  <submitter_name>  (206) 
None

$$$$
IRSNEECTDQZQJQ-UHFFFAOYSA-N
     RDKit          3D

 20 21  0  0  0  0  0  0  0  0999 V2000
   18.4918   16.5351   12.9501 C   0  0  0  0  0  0  0  0  0  0  0  0
   18.0319   15.2867   13.4511 O   0  0  0  0  0  0  0  0  0  0  0  0
   18.5692   14.2656   12.7156 C   0  0  0  0  0  0  0  0  0  0  0  0
   19.8945   14.3697   12.4516 N   0  0  0  0  0  0  0  0  0  0  0  0
   20.4149   13.4733   11.6233 C   0  0  0  0  0  0  0  0  0  0  0  0
   19.6385   12.5025   11.0423 C   0  0  0  0  0  0  0  0  0  0  0  0
   18.2502   12.3537   11.3701 C   0  0  0  0  0  0  0  0  0  0  0  0
   17.4622   11.3512   10.7159 N   0  0  0  0  0  0  0  0  0  0  0  0
   18.3519   10.3069   10.2840 C   0  0  0  0  0  0  0  0  0  0  0  0
   16.2307   10.6580   11.0001 C   0  0  0  0  0  0  0  0  0  0  0  0
   15.5562   10.0623    9.9056 C   0  0  0  0  0  0  0  0  0  0  0  0
   14.7639    8.9332   10.0765 C   0  0  0  0  0  0  0  0  0  0  0  0
   14.5622    8.4429   11.3569 C   0  0  0  0  0  0  0  0  0  0  0  0
   13.8388    7.2861   11.4480 O   0  0  0  0  0  0  0  0  0  0  0  0
   15.0338    9.1381   12.4812 C   0  0  0  0  0  0  0  0  0  0  0  0
   14.7137    8.7257   13.8860 C   0  0  0  0  0  0  0  0  0  0  0  0
   15.8972   10.2327   12.2877 C   0  0  0  0  0  0  0  0  0  0  0  0
   17.7100   13.2694   12.2599 C   0  0  0  0  0  0  0  0  0  0  0  0
   16.3725   13.1972   12.5082 O   0  0  0  0  0  0  0  0  0  0  0  0
   15.9248   13.6371   13.7810 C   0  0  0  0  0  0  0  0  0  0  0  0
  1  2  1  0
  2  3  1  0
  3  4  2  0
  4  5  1  0
  5  6  2  0
  6  7  1  0
  7  8  1  0
  8  9  1  0
  8 10  1  0
 10 11  2  0
 11 12  1  0
 12 13  2  0
 13 14  1  0
 13 15  1  0
 15 16  1  0
 15 17  2  0
  7 18  2  0
 18 19  1  0
 19 20  1  0
 18  3  1  0
 17 10  1  0
M  END
>  <original ID>  (207) 
IRSNEECTDQZQJQ-UHFFFAOYSA-N

>  <generation_date>  (207) 
None

>  <alias>  (207) 
None

>  <original SMILES>  (207) 
COc1nccc(N(C)c2ccc(O)c(C)c2)c1OC

>  <HIPPO ID>  (207) 
50543

>  <tags>  (207) 
[]

>  <ref_pdb>  (207) 
c0270a

>  <method>  (207) 
None

>  <ref_url>  (207) 
None

>  <inchikey>  (207) 
IRSNEECTDQZQJQ-UHFFFAOYSA-N

>  <submitter_email>  (207) 
None

>  <ref_mols>  (207) 
c0935a,c1132a

>  <submitter_name>  (207) 
None

$$$$
ZLZSKMWSYJYIDT-UHFFFAOYSA-N
     RDKit          3D

 20 21  0  0  0  0  0  0  0  0999 V2000
   23.3782   11.7109    9.3031 C   0  0  0  0  0  0  0  0  0  0  0  0
   22.1266   11.1392    9.6681 O   0  0  0  0  0  0  0  0  0  0  0  0
   21.4569   11.9402   10.6204 C   0  0  0  0  0  0  0  0  0  0  0  0
   20.0647   11.6236   10.6083 O   0  0  0  0  0  0  0  0  0  0  0  0
   19.2621   12.4385   11.3615 C   0  0  0  0  0  0  0  0  0  0  0  0
   19.6852   13.5419   12.0936 C   0  0  0  0  0  0  0  0  0  0  0  0
   18.8600   14.3297   12.8116 N   0  0  0  0  0  0  0  0  0  0  0  0
   17.5656   13.9709   12.8463 C   0  0  0  0  0  0  0  0  0  0  0  0
   16.7396   14.7459   13.5577 F   0  0  0  0  0  0  0  0  0  0  0  0
   17.0428   12.8756   12.1882 C   0  0  0  0  0  0  0  0  0  0  0  0
   17.8946   12.1023   11.4022 C   0  0  0  0  0  0  0  0  0  0  0  0
   17.4257   11.0057   10.6550 N   0  0  0  0  0  0  0  0  0  0  0  0
   16.3800   10.0891   10.8404 C   0  0  0  0  0  0  0  0  0  0  0  0
   15.8529    9.4562    9.7069 C   0  0  0  0  0  0  0  0  0  0  0  0
   14.8868    8.4608    9.8148 C   0  0  0  0  0  0  0  0  0  0  0  0
   14.4761    8.0511   11.0697 C   0  0  0  0  0  0  0  0  0  0  0  0
   13.5945    7.0213   11.2089 O   0  0  0  0  0  0  0  0  0  0  0  0
   14.9235    8.7058   12.2082 C   0  0  0  0  0  0  0  0  0  0  0  0
   15.8314    9.7525   12.0821 C   0  0  0  0  0  0  0  0  0  0  0  0
   16.2511   10.3562   13.2040 F   0  0  0  0  0  0  0  0  0  0  0  0
  1  2  1  0
  2  3  1  0
  3  4  1  0
  4  5  1  0
  5  6  2  0
  6  7  1  0
  7  8  2  0
  8  9  1  0
  8 10  1  0
 10 11  2  0
 11 12  1  0
 12 13  1  0
 13 14  2  0
 14 15  1  0
 15 16  2  0
 16 17  1  0
 16 18  1  0
 18 19  2  0
 19 20  1  0
 11  5  1  0
 19 13  1  0
M  END
>  <original ID>  (208) 
ZLZSKMWSYJYIDT-UHFFFAOYSA-N

>  <generation_date>  (208) 
None

>  <alias>  (208) 
None

>  <original SMILES>  (208) 
COCOc1cnc(F)cc1Nc1ccc(O)cc1F

>  <HIPPO ID>  (208) 
50683

>  <tags>  (208) 
[]

>  <ref_pdb>  (208) 
c0270a

>  <method>  (208) 
None

>  <ref_url>  (208) 
None

>  <inchikey>  (208) 
ZLZSKMWSYJYIDT-UHFFFAOYSA-N

>  <submitter_email>  (208) 
None

>  <ref_mols>  (208) 
c0935a,c1132a

>  <submitter_name>  (208) 
None

$$$$
XSZJKGANGQVBRZ-UHFFFAOYSA-N
     RDKit          3D

 20 21  0  0  0  0  0  0  0  0999 V2000
   13.5645    6.9703   11.2892 O   0  0  0  0  0  0  0  0  0  0  0  0
   14.4418    7.9982   11.1128 C   0  0  0  0  0  0  0  0  0  0  0  0
   14.7972    8.4103    9.8423 C   0  0  0  0  0  0  0  0  0  0  0  0
   15.7528    9.4091    9.7022 C   0  0  0  0  0  0  0  0  0  0  0  0
   16.3289   10.0284   10.8196 C   0  0  0  0  0  0  0  0  0  0  0  0
   17.3810   10.9247   10.6036 N   0  0  0  0  0  0  0  0  0  0  0  0
   17.9221   12.0017   11.3290 C   0  0  0  0  0  0  0  0  0  0  0  0
   17.1430   12.7976   12.1638 C   0  0  0  0  0  0  0  0  0  0  0  0
   17.7510   13.8788   12.7707 C   0  0  0  0  0  0  0  0  0  0  0  0
   16.8543   14.9601   13.7477 Cl  0  0  0  0  0  0  0  0  0  0  0  0
   19.0544   14.1920   12.6495 N   0  0  0  0  0  0  0  0  0  0  0  0
   19.8137   13.3732   11.8915 C   0  0  0  0  0  0  0  0  0  0  0  0
   19.3020   12.2782   11.2119 C   0  0  0  0  0  0  0  0  0  0  0  0
   20.0006   11.4096   10.4273 O   0  0  0  0  0  0  0  0  0  0  0  0
   21.4149   11.4752   10.4560 C   0  0  0  0  0  0  0  0  0  0  0  0
   21.8442   12.6500    9.9633 F   0  0  0  0  0  0  0  0  0  0  0  0
   21.8782   11.2806   11.7010 F   0  0  0  0  0  0  0  0  0  0  0  0
   21.8756   10.4983    9.6778 F   0  0  0  0  0  0  0  0  0  0  0  0
   15.8478    9.6975   12.0861 C   0  0  0  0  0  0  0  0  0  0  0  0
   14.9388    8.6491   12.2359 C   0  0  0  0  0  0  0  0  0  0  0  0
  1  2  1  0
  2  3  2  0
  3  4  1  0
  4  5  2  0
  5  6  1  0
  6  7  1  0
  7  8  2  0
  8  9  1  0
  9 10  1  0
  9 11  2  0
 11 12  1  0
 12 13  2  0
 13 14  1  0
 14 15  1  0
 15 16  1  0
 15 17  1  0
 15 18  1  0
  5 19  1  0
 19 20  2  0
 20  2  1  0
 13  7  1  0
M  END
>  <original ID>  (209) 
XSZJKGANGQVBRZ-UHFFFAOYSA-N

>  <generation_date>  (209) 
None

>  <alias>  (209) 
None

>  <original SMILES>  (209) 
Oc1ccc(Nc2cc(Cl)ncc2OC(F)(F)F)cc1

>  <HIPPO ID>  (209) 
50706

>  <tags>  (209) 
[]

>  <ref_pdb>  (209) 
c0270a

>  <method>  (209) 
None

>  <ref_url>  (209) 
None

>  <inchikey>  (209) 
XSZJKGANGQVBRZ-UHFFFAOYSA-N

>  <submitter_email>  (209) 
None

>  <ref_mols>  (209) 
c0935a,c1132a

>  <submitter_name>  (209) 
None

$$$$
TUYWAQAZEIKTTR-UHFFFAOYSA-N
     RDKit          3D

 20 21  0  0  0  0  0  0  0  0999 V2000
   21.4825   11.4145   10.5603 C   0  0  0  0  0  0  0  0  0  0  0  0
   20.0590   11.3665   10.4872 O   0  0  0  0  0  0  0  0  0  0  0  0
   19.3759   12.2944   11.2280 C   0  0  0  0  0  0  0  0  0  0  0  0
   19.9429   13.3866   11.8731 C   0  0  0  0  0  0  0  0  0  0  0  0
   19.2357   14.2839   12.5941 N   0  0  0  0  0  0  0  0  0  0  0  0
   17.9063   14.0644   12.6922 C   0  0  0  0  0  0  0  0  0  0  0  0
   17.1640   15.0668   13.4778 C   0  0  0  0  0  0  0  0  0  0  0  0
   15.9545   14.9945   13.6560 O   0  0  0  0  0  0  0  0  0  0  0  0
   17.2403   13.0077   12.0911 C   0  0  0  0  0  0  0  0  0  0  0  0
   17.9801   12.1038   11.3334 C   0  0  0  0  0  0  0  0  0  0  0  0
   17.3815   11.0173   10.6671 N   0  0  0  0  0  0  0  0  0  0  0  0
   16.3048   10.1444   10.9050 C   0  0  0  0  0  0  0  0  0  0  0  0
   15.7146    9.5696    9.7648 C   0  0  0  0  0  0  0  0  0  0  0  0
   14.7480    8.5819    9.8736 C   0  0  0  0  0  0  0  0  0  0  0  0
   14.1120    8.1635    8.7775 F   0  0  0  0  0  0  0  0  0  0  0  0
   14.4153    8.0682   11.1121 C   0  0  0  0  0  0  0  0  0  0  0  0
   13.5462    7.0192   11.1956 O   0  0  0  0  0  0  0  0  0  0  0  0
   14.8997    8.6841   12.2568 C   0  0  0  0  0  0  0  0  0  0  0  0
   15.7753    9.7732   12.1528 C   0  0  0  0  0  0  0  0  0  0  0  0
   16.1819   10.5150   13.6536 Cl  0  0  0  0  0  0  0  0  0  0  0  0
  1  2  1  0
  2  3  1  0
  3  4  2  0
  4  5  1  0
  5  6  2  0
  6  7  1  0
  7  8  2  0
  6  9  1  0
  9 10  2  0
 10 11  1  0
 11 12  1  0
 12 13  2  0
 13 14  1  0
 14 15  1  0
 14 16  2  0
 16 17  1  0
 16 18  1  0
 18 19  2  0
 19 20  1  0
 10  3  1  0
 19 12  1  0
M  END
>  <original ID>  (210) 
TUYWAQAZEIKTTR-UHFFFAOYSA-N

>  <generation_date>  (210) 
None

>  <alias>  (210) 
None

>  <original SMILES>  (210) 
COc1cnc(C=O)cc1Nc1cc(F)c(O)cc1Cl

>  <HIPPO ID>  (210) 
50819

>  <tags>  (210) 
[]

>  <ref_pdb>  (210) 
c0270a

>  <method>  (210) 
None

>  <ref_url>  (210) 
None

>  <inchikey>  (210) 
TUYWAQAZEIKTTR-UHFFFAOYSA-N

>  <submitter_email>  (210) 
None

>  <ref_mols>  (210) 
c0935a,c1132a

>  <submitter_name>  (210) 
None

$$$$
KFFAHSWXSFPHLH-UHFFFAOYSA-N
     RDKit          3D

 20 21  0  0  0  0  0  0  0  0999 V2000
   21.4622   11.4216   10.5703 C   0  0  0  0  0  0  0  0  0  0  0  0
   20.0381   11.3889   10.5001 O   0  0  0  0  0  0  0  0  0  0  0  0
   19.3658   12.3281   11.2365 C   0  0  0  0  0  0  0  0  0  0  0  0
   19.9409   13.4311   11.8546 C   0  0  0  0  0  0  0  0  0  0  0  0
   19.2437   14.3369   12.5759 N   0  0  0  0  0  0  0  0  0  0  0  0
   17.9164   14.1167   12.6988 C   0  0  0  0  0  0  0  0  0  0  0  0
   17.1849   15.1174   13.4948 C   0  0  0  0  0  0  0  0  0  0  0  0
   15.9867   15.0147   13.7282 O   0  0  0  0  0  0  0  0  0  0  0  0
   17.2422   13.0522   12.1230 C   0  0  0  0  0  0  0  0  0  0  0  0
   17.9725   12.1385   11.3692 C   0  0  0  0  0  0  0  0  0  0  0  0
   17.3631   11.0346   10.7473 N   0  0  0  0  0  0  0  0  0  0  0  0
   16.3031   10.1592   11.0340 C   0  0  0  0  0  0  0  0  0  0  0  0
   15.6673    9.5912    9.9159 C   0  0  0  0  0  0  0  0  0  0  0  0
   14.6807    8.6088   10.0369 C   0  0  0  0  0  0  0  0  0  0  0  0
   13.7742    8.3475    8.8839 C   0  0  0  0  0  0  0  0  0  0  0  0
   14.4414    8.0726   11.2883 C   0  0  0  0  0  0  0  0  0  0  0  0
   13.5965    7.0226   11.4945 O   0  0  0  0  0  0  0  0  0  0  0  0
   14.9600    8.6942   12.4115 C   0  0  0  0  0  0  0  0  0  0  0  0
   15.8211    9.8008   12.3017 C   0  0  0  0  0  0  0  0  0  0  0  0
   16.1200   10.5128   13.5819 C   0  0  0  0  0  0  0  0  0  0  0  0
  1  2  1  0
  2  3  1  0
  3  4  2  0
  4  5  1  0
  5  6  2  0
  6  7  1  0
  7  8  2  0
  6  9  1  0
  9 10  2  0
 10 11  1  0
 11 12  1  0
 12 13  2  0
 13 14  1  0
 14 15  1  0
 14 16  2  0
 16 17  1  0
 16 18  1  0
 18 19  2  0
 19 20  1  0
 10  3  1  0
 19 12  1  0
M  END
>  <original ID>  (211) 
KFFAHSWXSFPHLH-UHFFFAOYSA-N

>  <generation_date>  (211) 
None

>  <alias>  (211) 
None

>  <original SMILES>  (211) 
COc1cnc(C=O)cc1Nc1cc(C)c(O)cc1C

>  <HIPPO ID>  (211) 
50872

>  <tags>  (211) 
[]

>  <ref_pdb>  (211) 
c0270a

>  <method>  (211) 
None

>  <ref_url>  (211) 
None

>  <inchikey>  (211) 
KFFAHSWXSFPHLH-UHFFFAOYSA-N

>  <submitter_email>  (211) 
None

>  <ref_mols>  (211) 
c0935a,c1132a

>  <submitter_name>  (211) 
None

$$$$
DVYUVUBHXSFMJE-UHFFFAOYSA-N
     RDKit          3D

 20 21  0  0  0  0  0  0  0  0999 V2000
   20.9189   10.5562   10.1166 C   0  0  0  0  0  0  0  0  0  0  0  0
   19.5362   10.8578   10.3104 O   0  0  0  0  0  0  0  0  0  0  0  0
   19.3094   11.9541   11.0807 C   0  0  0  0  0  0  0  0  0  0  0  0
   20.3473   12.8603   11.3791 C   0  0  0  0  0  0  0  0  0  0  0  0
   20.2371   13.9270   12.1799 N   0  0  0  0  0  0  0  0  0  0  0  0
   19.0457   14.0514   12.7631 C   0  0  0  0  0  0  0  0  0  0  0  0
   18.9387   15.0868   13.7822 C   0  0  0  0  0  0  0  0  0  0  0  0
   17.9871   15.1089   14.5560 O   0  0  0  0  0  0  0  0  0  0  0  0
   17.9448   13.2547   12.5128 C   0  0  0  0  0  0  0  0  0  0  0  0
   18.0176   12.2037   11.5960 C   0  0  0  0  0  0  0  0  0  0  0  0
   16.8069   11.5816   11.1835 N   0  0  0  0  0  0  0  0  0  0  0  0
   15.5707   12.3265   11.5243 C   0  0  0  0  0  0  0  0  0  0  0  0
   16.3923   10.2131   11.1663 C   0  0  0  0  0  0  0  0  0  0  0  0
   16.0228    9.6437    9.9445 C   0  0  0  0  0  0  0  0  0  0  0  0
   15.1606    8.5516    9.8892 C   0  0  0  0  0  0  0  0  0  0  0  0
   14.6665    7.9969   11.0617 C   0  0  0  0  0  0  0  0  0  0  0  0
   13.7655    6.9714   10.9837 O   0  0  0  0  0  0  0  0  0  0  0  0
   15.0356    8.5172   12.3041 C   0  0  0  0  0  0  0  0  0  0  0  0
   14.4670    8.0181   13.5977 C   0  0  0  0  0  0  0  0  0  0  0  0
   15.9186    9.6088   12.3442 C   0  0  0  0  0  0  0  0  0  0  0  0
  1  2  1  0
  2  3  1  0
  3  4  2  0
  4  5  1  0
  5  6  2  0
  6  7  1  0
  7  8  2  0
  6  9  1  0
  9 10  2  0
 10 11  1  0
 11 12  1  0
 11 13  1  0
 13 14  2  0
 14 15  1  0
 15 16  2  0
 16 17  1  0
 16 18  1  0
 18 19  1  0
 18 20  2  0
 10  3  1  0
 20 13  1  0
M  END
>  <original ID>  (212) 
DVYUVUBHXSFMJE-UHFFFAOYSA-N

>  <generation_date>  (212) 
None

>  <alias>  (212) 
None

>  <original SMILES>  (212) 
COc1cnc(C=O)cc1N(C)c1ccc(O)c(C)c1

>  <HIPPO ID>  (212) 
50883

>  <tags>  (212) 
[]

>  <ref_pdb>  (212) 
c0270a

>  <method>  (212) 
None

>  <ref_url>  (212) 
None

>  <inchikey>  (212) 
DVYUVUBHXSFMJE-UHFFFAOYSA-N

>  <submitter_email>  (212) 
None

>  <ref_mols>  (212) 
c0935a,c1132a

>  <submitter_name>  (212) 
None

$$$$
HQIPTRAVVGJPRC-UHFFFAOYSA-N
     RDKit          3D

 20 21  0  0  0  0  0  0  0  0999 V2000
   21.5961   11.4841   10.5241 C   0  0  0  0  0  0  0  0  0  0  0  0
   20.1744   11.4217   10.4445 O   0  0  0  0  0  0  0  0  0  0  0  0
   19.4791   12.3273   11.1990 C   0  0  0  0  0  0  0  0  0  0  0  0
   20.0201   13.4352   11.8373 C   0  0  0  0  0  0  0  0  0  0  0  0
   19.2966   14.3027   12.5802 N   0  0  0  0  0  0  0  0  0  0  0  0
   17.9823   14.0244   12.7235 C   0  0  0  0  0  0  0  0  0  0  0  0
   17.2238   14.9904   13.5388 C   0  0  0  0  0  0  0  0  0  0  0  0
   16.0373   14.8339   13.8000 O   0  0  0  0  0  0  0  0  0  0  0  0
   17.3446   12.9374   12.1477 C   0  0  0  0  0  0  0  0  0  0  0  0
   18.0954   12.0922   11.3328 C   0  0  0  0  0  0  0  0  0  0  0  0
   17.5092   11.0079   10.6573 N   0  0  0  0  0  0  0  0  0  0  0  0
   16.4355   10.1625   10.9504 C   0  0  0  0  0  0  0  0  0  0  0  0
   15.7449    9.5712    9.8946 C   0  0  0  0  0  0  0  0  0  0  0  0
   14.7428    8.6323   10.1317 C   0  0  0  0  0  0  0  0  0  0  0  0
   13.8251    8.2323    9.0241 C   0  0  0  0  0  0  0  0  0  0  0  0
   14.5049    8.2077   11.4372 C   0  0  0  0  0  0  0  0  0  0  0  0
   13.6283    7.1687   11.5960 O   0  0  0  0  0  0  0  0  0  0  0  0
   15.0794    8.8794   12.5193 C   0  0  0  0  0  0  0  0  0  0  0  0
   14.6985    8.6072   13.9433 C   0  0  0  0  0  0  0  0  0  0  0  0
   16.0101    9.8940   12.2525 C   0  0  0  0  0  0  0  0  0  0  0  0
  1  2  1  0
  2  3  1  0
  3  4  2  0
  4  5  1  0
  5  6  2  0
  6  7  1  0
  7  8  2  0
  6  9  1  0
  9 10  2  0
 10 11  1  0
 11 12  1  0
 12 13  2  0
 13 14  1  0
 14 15  1  0
 14 16  2  0
 16 17  1  0
 16 18  1  0
 18 19  1  0
 18 20  2  0
 10  3  1  0
 20 12  1  0
M  END
>  <original ID>  (213) 
HQIPTRAVVGJPRC-UHFFFAOYSA-N

>  <generation_date>  (213) 
None

>  <alias>  (213) 
None

>  <original SMILES>  (213) 
COc1cnc(C=O)cc1Nc1cc(C)c(O)c(C)c1

>  <HIPPO ID>  (213) 
50889

>  <tags>  (213) 
[]

>  <ref_pdb>  (213) 
c0270a

>  <method>  (213) 
None

>  <ref_url>  (213) 
None

>  <inchikey>  (213) 
HQIPTRAVVGJPRC-UHFFFAOYSA-N

>  <submitter_email>  (213) 
None

>  <ref_mols>  (213) 
c0935a,c1132a

>  <submitter_name>  (213) 
None

$$$$
ZIMJKADSZBYFPT-UHFFFAOYSA-N
     RDKit          3D

 20 21  0  0  0  0  0  0  0  0999 V2000
   13.3894    5.4940   11.0156 C   0  0  0  0  0  0  0  0  0  0  0  0
   13.9181    6.3577   12.0158 O   0  0  0  0  0  0  0  0  0  0  0  0
   14.5665    7.4798   11.5868 C   0  0  0  0  0  0  0  0  0  0  0  0
   14.7667    7.8581   10.2697 C   0  0  0  0  0  0  0  0  0  0  0  0
   15.4583    9.0377    9.9778 C   0  0  0  0  0  0  0  0  0  0  0  0
   15.9544    9.8858   10.9886 C   0  0  0  0  0  0  0  0  0  0  0  0
   16.6081   11.0688   10.5460 N   0  0  0  0  0  0  0  0  0  0  0  0
   17.7372   11.7373   11.1081 C   0  0  0  0  0  0  0  0  0  0  0  0
   19.0213   11.3200   10.7302 C   0  0  0  0  0  0  0  0  0  0  0  0
   20.1145   12.0553   11.1569 C   0  0  0  0  0  0  0  0  0  0  0  0
   21.4896   11.6302   10.8047 C   0  0  0  0  0  0  0  0  0  0  0  0
   22.4831   12.1792   11.2623 O   0  0  0  0  0  0  0  0  0  0  0  0
   20.0005   13.1669   11.9126 N   0  0  0  0  0  0  0  0  0  0  0  0
   18.7599   13.5523   12.2746 C   0  0  0  0  0  0  0  0  0  0  0  0
   17.5986   12.8925   11.9008 C   0  0  0  0  0  0  0  0  0  0  0  0
   16.3301   13.3311   12.1670 O   0  0  0  0  0  0  0  0  0  0  0  0
   16.1871   14.3526   13.1501 C   0  0  0  0  0  0  0  0  0  0  0  0
   15.6530    9.5433   12.3203 C   0  0  0  0  0  0  0  0  0  0  0  0
   15.9233   10.5860   13.7425 S   0  0  0  0  0  0  0  0  0  0  0  0
   15.0117    8.3236   12.6023 C   0  0  0  0  0  0  0  0  0  0  0  0
  1  2  1  0
  2  3  1  0
  3  4  2  0
  4  5  1  0
  5  6  2  0
  6  7  1  0
  7  8  1  0
  8  9  2  0
  9 10  1  0
 10 11  1  0
 11 12  2  0
 10 13  2  0
 13 14  1  0
 14 15  2  0
 15 16  1  0
 16 17  1  0
  6 18  1  0
 18 19  1  0
 18 20  2  0
 20  3  1  0
 15  8  1  0
M  END
>  <original ID>  (214) 
ZIMJKADSZBYFPT-UHFFFAOYSA-N

>  <generation_date>  (214) 
None

>  <alias>  (214) 
None

>  <original SMILES>  (214) 
COc1ccc(Nc2cc(C=O)ncc2OC)c(S)c1

>  <HIPPO ID>  (214) 
50891

>  <tags>  (214) 
[]

>  <ref_pdb>  (214) 
c0270a

>  <method>  (214) 
None

>  <ref_url>  (214) 
None

>  <inchikey>  (214) 
ZIMJKADSZBYFPT-UHFFFAOYSA-N

>  <submitter_email>  (214) 
None

>  <ref_mols>  (214) 
c0935a,c1132a

>  <submitter_name>  (214) 
None

$$$$
OYDUKKVVCSVFBI-UHFFFAOYSA-N
     RDKit          3D

 20 21  0  0  0  0  0  0  0  0999 V2000
   21.4200   11.4130   10.6014 C   0  0  0  0  0  0  0  0  0  0  0  0
   19.9956   11.3417   10.6035 O   0  0  0  0  0  0  0  0  0  0  0  0
   19.3244   12.2865   11.3387 C   0  0  0  0  0  0  0  0  0  0  0  0
   17.9206   12.1591   11.3469 C   0  0  0  0  0  0  0  0  0  0  0  0
   17.3075   11.0944   10.6519 N   0  0  0  0  0  0  0  0  0  0  0  0
   16.2785   10.1687   10.9000 C   0  0  0  0  0  0  0  0  0  0  0  0
   15.8370    9.4326    9.7818 C   0  0  0  0  0  0  0  0  0  0  0  0
   14.9172    8.3867    9.8894 C   0  0  0  0  0  0  0  0  0  0  0  0
   14.4615    8.0010   11.1308 C   0  0  0  0  0  0  0  0  0  0  0  0
   13.6081    6.9444   11.2072 O   0  0  0  0  0  0  0  0  0  0  0  0
   14.8123    8.7311   12.2497 C   0  0  0  0  0  0  0  0  0  0  0  0
   15.6437    9.8552   12.1047 C   0  0  0  0  0  0  0  0  0  0  0  0
   15.7801   10.6318   13.3051 N   0  0  0  0  0  4  0  0  0  0  0  0
   16.3953   10.1142   14.2416 O   0  0  0  0  0  0  0  0  0  0  0  0
   15.1540   11.6928   13.3719 O   0  0  0  0  0  1  0  0  0  0  0  0
   17.1755   13.1231   12.0210 C   0  0  0  0  0  0  0  0  0  0  0  0
   17.8226   14.1348   12.7045 C   0  0  0  0  0  0  0  0  0  0  0  0
   19.1567   14.2570   12.7474 N   0  0  0  0  0  0  0  0  0  0  0  0
   19.8787   13.3326   12.0766 C   0  0  0  0  0  0  0  0  0  0  0  0
   21.2064   13.4639   12.1794 F   0  0  0  0  0  0  0  0  0  0  0  0
  1  2  1  0
  2  3  1  0
  3  4  2  0
  4  5  1  0
  5  6  1  0
  6  7  2  0
  7  8  1  0
  8  9  2  0
  9 10  1  0
  9 11  1  0
 11 12  2  0
 12 13  1  0
 13 14  2  0
 13 15  1  0
  4 16  1  0
 16 17  2  0
 17 18  1  0
 18 19  2  0
 19 20  1  0
 19  3  1  0
 12  6  1  0
M  CHG  2  13   1  15  -1
M  END
>  <original ID>  (215) 
OYDUKKVVCSVFBI-UHFFFAOYSA-N

>  <generation_date>  (215) 
None

>  <alias>  (215) 
None

>  <original SMILES>  (215) 
COc1c(Nc2ccc(O)cc2[N+](=O)[O-])ccnc1F

>  <HIPPO ID>  (215) 
50924

>  <tags>  (215) 
[]

>  <ref_pdb>  (215) 
c0270a

>  <method>  (215) 
None

>  <ref_url>  (215) 
None

>  <inchikey>  (215) 
OYDUKKVVCSVFBI-UHFFFAOYSA-N

>  <submitter_email>  (215) 
None

>  <ref_mols>  (215) 
c0935a,c1132a

>  <submitter_name>  (215) 
None

$$$$
IMLYUYUOQYSXME-UHFFFAOYSA-N
     RDKit          3D

 20 21  0  0  0  0  0  0  0  0999 V2000
   21.4995   11.6057   10.6103 C   0  0  0  0  0  0  0  0  0  0  0  0
   20.0803   11.4843   10.5496 O   0  0  0  0  0  0  0  0  0  0  0  0
   19.3405   12.3487   11.3165 C   0  0  0  0  0  0  0  0  0  0  0  0
   17.9565   12.0874   11.3484 C   0  0  0  0  0  0  0  0  0  0  0  0
   17.4441   11.0025   10.6112 N   0  0  0  0  0  0  0  0  0  0  0  0
   16.4037   10.0985   10.8406 C   0  0  0  0  0  0  0  0  0  0  0  0
   15.9129    9.3627    9.7584 C   0  0  0  0  0  0  0  0  0  0  0  0
   14.9532    8.3737    9.9354 C   0  0  0  0  0  0  0  0  0  0  0  0
   14.4823    8.0924   11.2090 C   0  0  0  0  0  0  0  0  0  0  0  0
   13.5724    7.0833   11.3494 O   0  0  0  0  0  0  0  0  0  0  0  0
   14.8866    8.8844   12.2907 C   0  0  0  0  0  0  0  0  0  0  0  0
   14.3109    8.7917   13.6494 C   0  0  0  0  0  0  0  0  0  0  0  0
   14.1072    9.7364   14.3935 O   0  0  0  0  0  0  0  0  0  0  0  0
   14.0421    7.5338   14.0260 O   0  0  0  0  0  0  0  0  0  0  0  0
   15.8265    9.9009   12.0927 C   0  0  0  0  0  0  0  0  0  0  0  0
   17.1266   12.8957   12.1293 C   0  0  0  0  0  0  0  0  0  0  0  0
   17.6844   13.9605   12.8083 C   0  0  0  0  0  0  0  0  0  0  0  0
   18.9984   14.2408   12.7958 N   0  0  0  0  0  0  0  0  0  0  0  0
   19.7995   13.4192   12.0767 C   0  0  0  0  0  0  0  0  0  0  0  0
   21.1084   13.6851   12.1566 F   0  0  0  0  0  0  0  0  0  0  0  0
  1  2  1  0
  2  3  1  0
  3  4  2  0
  4  5  1  0
  5  6  1  0
  6  7  2  0
  7  8  1  0
  8  9  2  0
  9 10  1  0
  9 11  1  0
 11 12  1  0
 12 13  2  0
 12 14  1  0
 11 15  2  0
  4 16  1  0
 16 17  2  0
 17 18  1  0
 18 19  2  0
 19 20  1  0
 19  3  1  0
 15  6  1  0
M  END
>  <original ID>  (216) 
IMLYUYUOQYSXME-UHFFFAOYSA-N

>  <generation_date>  (216) 
None

>  <alias>  (216) 
None

>  <original SMILES>  (216) 
COc1c(Nc2ccc(O)c(C(=O)O)c2)ccnc1F

>  <HIPPO ID>  (216) 
50930

>  <tags>  (216) 
[]

>  <ref_pdb>  (216) 
c0270a

>  <method>  (216) 
None

>  <ref_url>  (216) 
None

>  <inchikey>  (216) 
IMLYUYUOQYSXME-UHFFFAOYSA-N

>  <submitter_email>  (216) 
None

>  <ref_mols>  (216) 
c0935a,c1132a

>  <submitter_name>  (216) 
None

$$$$
RAYLMLSAZIXZDH-UHFFFAOYSA-N
     RDKit          3D

 20 21  0  0  0  0  0  0  0  0999 V2000
   20.9847   11.0160   11.0056 C   0  0  0  0  0  0  0  0  0  0  0  0
   19.5611   10.9289   11.0652 O   0  0  0  0  0  0  0  0  0  0  0  0
   18.9267   12.0873   11.4607 C   0  0  0  0  0  0  0  0  0  0  0  0
   17.5964   11.9479   11.9998 C   0  0  0  0  0  0  0  0  0  0  0  0
   17.0972   10.6124   12.2926 N   0  0  0  0  0  0  0  0  0  0  0  0
   15.9223    9.8330   11.9624 C   0  0  0  0  0  0  0  0  0  0  0  0
   15.3374    8.9616   12.8759 C   0  0  0  0  0  0  0  0  0  0  0  0
   14.5157    7.9107   12.4046 C   0  0  0  0  0  0  0  0  0  0  0  0
   13.8689    7.0638   13.2538 O   0  0  0  0  0  0  0  0  0  0  0  0
   14.2687    7.6753   11.0522 C   0  0  0  0  0  0  0  0  0  0  0  0
   14.7832    8.5502   10.1346 C   0  0  0  0  0  0  0  0  0  0  0  0
   15.5747    9.5804   10.6349 C   0  0  0  0  0  0  0  0  0  0  0  0
   16.2616   10.3462    9.7057 N   0  0  0  0  0  4  0  0  0  0  0  0
   15.5886   11.2425    9.2102 O   0  0  0  0  0  0  0  0  0  0  0  0
   17.4644   10.0956    9.6387 O   0  0  0  0  0  1  0  0  0  0  0  0
   16.9770   13.0610   12.5378 C   0  0  0  0  0  0  0  0  0  0  0  0
   17.6957   14.2462   12.5410 C   0  0  0  0  0  0  0  0  0  0  0  0
   18.9360   14.4152   12.0180 N   0  0  0  0  0  0  0  0  0  0  0  0
   19.5220   13.3393   11.4660 C   0  0  0  0  0  0  0  0  0  0  0  0
   20.7443   13.5211   10.9340 F   0  0  0  0  0  0  0  0  0  0  0  0
  1  2  1  0
  2  3  1  0
  3  4  2  0
  4  5  1  0
  5  6  1  0
  6  7  2  0
  7  8  1  0
  8  9  1  0
  8 10  2  0
 10 11  1  0
 11 12  2  0
 12 13  1  0
 13 14  2  0
 13 15  1  0
  4 16  1  0
 16 17  2  0
 17 18  1  0
 18 19  2  0
 19 20  1  0
 19  3  1  0
 12  6  1  0
M  CHG  2  13   1  15  -1
M  END
>  <original ID>  (217) 
RAYLMLSAZIXZDH-UHFFFAOYSA-N

>  <generation_date>  (217) 
None

>  <alias>  (217) 
None

>  <original SMILES>  (217) 
COc1c(Nc2cc(O)ccc2[N+](=O)[O-])ccnc1F

>  <HIPPO ID>  (217) 
50933

>  <tags>  (217) 
[]

>  <ref_pdb>  (217) 
c0270a

>  <method>  (217) 
None

>  <ref_url>  (217) 
None

>  <inchikey>  (217) 
RAYLMLSAZIXZDH-UHFFFAOYSA-N

>  <submitter_email>  (217) 
None

>  <ref_mols>  (217) 
c0935a,c1132a

>  <submitter_name>  (217) 
None

$$$$
BNBFBMKBHNXGTF-UHFFFAOYSA-N
     RDKit          3D

 20 21  0  0  0  0  0  0  0  0999 V2000
   13.0531    5.7968   12.1320 C   0  0  0  0  0  0  0  0  0  0  0  0
   13.7434    6.5949   13.0883 O   0  0  0  0  0  0  0  0  0  0  0  0
   14.4539    7.6570   12.6104 C   0  0  0  0  0  0  0  0  0  0  0  0
   14.7038    7.9251   11.2806 C   0  0  0  0  0  0  0  0  0  0  0  0
   15.3780    9.1008   10.9426 C   0  0  0  0  0  0  0  0  0  0  0  0
   15.4401    9.5057    9.1057 Br  0  0  0  0  0  0  0  0  0  0  0  0
   15.9138   10.0101   11.8868 C   0  0  0  0  0  0  0  0  0  0  0  0
   16.7206   11.0495   11.3648 N   0  0  0  0  0  0  0  0  0  0  0  0
   17.3080   12.2385   11.8352 C   0  0  0  0  0  0  0  0  0  0  0  0
   16.5705   13.1915   12.5325 C   0  0  0  0  0  0  0  0  0  0  0  0
   17.2097   14.3374   12.9700 C   0  0  0  0  0  0  0  0  0  0  0  0
   18.5089   14.6049   12.7407 N   0  0  0  0  0  0  0  0  0  0  0  0
   19.2086   13.6830   12.0466 C   0  0  0  0  0  0  0  0  0  0  0  0
   20.4784   14.0025   11.7644 F   0  0  0  0  0  0  0  0  0  0  0  0
   18.6722   12.4919   11.5730 C   0  0  0  0  0  0  0  0  0  0  0  0
   19.3427   11.5332   10.8536 O   0  0  0  0  0  0  0  0  0  0  0  0
   20.7678   11.6199   10.8454 C   0  0  0  0  0  0  0  0  0  0  0  0
   15.5709    9.7543   13.2210 C   0  0  0  0  0  0  0  0  0  0  0  0
   15.9676   10.8708   14.7007 Br  0  0  0  0  0  0  0  0  0  0  0  0
   14.8793    8.5749   13.5705 C   0  0  0  0  0  0  0  0  0  0  0  0
  1  2  1  0
  2  3  1  0
  3  4  2  0
  4  5  1  0
  5  6  1  0
  5  7  2  0
  7  8  1  0
  8  9  1  0
  9 10  2  0
 10 11  1  0
 11 12  2  0
 12 13  1  0
 13 14  1  0
 13 15  2  0
 15 16  1  0
 16 17  1  0
  7 18  1  0
 18 19  1  0
 18 20  2  0
 20  3  1  0
 15  9  1  0
M  END
>  <original ID>  (218) 
BNBFBMKBHNXGTF-UHFFFAOYSA-N

>  <generation_date>  (218) 
None

>  <alias>  (218) 
None

>  <original SMILES>  (218) 
COc1cc(Br)c(Nc2ccnc(F)c2OC)c(Br)c1

>  <HIPPO ID>  (218) 
50934

>  <tags>  (218) 
[]

>  <ref_pdb>  (218) 
c0270a

>  <method>  (218) 
None

>  <ref_url>  (218) 
None

>  <inchikey>  (218) 
BNBFBMKBHNXGTF-UHFFFAOYSA-N

>  <submitter_email>  (218) 
None

>  <ref_mols>  (218) 
c0935a,c1132a

>  <submitter_name>  (218) 
None

$$$$
WTIPYLGXRPFERZ-UHFFFAOYSA-N
     RDKit          3D

 20 21  0  0  0  0  0  0  0  0999 V2000
   13.4761    6.4486   10.4714 C   0  0  0  0  0  0  0  0  0  0  0  0
   13.7929    7.2731   11.5752 O   0  0  0  0  0  0  0  0  0  0  0  0
   14.5498    8.4034   11.4123 C   0  0  0  0  0  0  0  0  0  0  0  0
   14.8249    9.0999   10.2336 C   0  0  0  0  0  0  0  0  0  0  0  0
   14.0451    8.7909    8.7372 Cl  0  0  0  0  0  0  0  0  0  0  0  0
   15.6257   10.2486   10.2586 C   0  0  0  0  0  0  0  0  0  0  0  0
   16.0886   10.7912   11.4597 C   0  0  0  0  0  0  0  0  0  0  0  0
   16.9725   11.8894   11.4871 N   0  0  0  0  0  0  0  0  0  0  0  0
   18.3491   11.8162   11.1626 C   0  0  0  0  0  0  0  0  0  0  0  0
   18.8236   10.8191   10.3459 C   0  0  0  0  0  0  0  0  0  0  0  0
   20.1676   10.7745   10.0370 C   0  0  0  0  0  0  0  0  0  0  0  0
   21.0790   11.6177   10.4911 N   0  0  0  0  0  0  0  0  0  0  0  0
   20.6196   12.6001   11.2506 C   0  0  0  0  0  0  0  0  0  0  0  0
   21.6492   13.3918   11.6892 N   0  0  0  0  0  0  0  0  0  0  0  0
   19.2716   12.7807   11.5819 C   0  0  0  0  0  0  0  0  0  0  0  0
   18.7743   13.7873   12.3582 O   0  0  0  0  0  0  0  0  0  0  0  0
   19.4365   15.0433   12.2315 C   0  0  0  0  0  0  0  0  0  0  0  0
   15.7359   10.1631   12.6448 C   0  0  0  0  0  0  0  0  0  0  0  0
   14.9763    8.9934   12.6181 C   0  0  0  0  0  0  0  0  0  0  0  0
   14.4786    8.3646   14.1534 Cl  0  0  0  0  0  0  0  0  0  0  0  0
  1  2  1  0
  2  3  1  0
  3  4  2  0
  4  5  1  0
  4  6  1  0
  6  7  2  0
  7  8  1  0
  8  9  1  0
  9 10  2  0
 10 11  1  0
 11 12  2  0
 12 13  1  0
 13 14  1  0
 13 15  2  0
 15 16  1  0
 16 17  1  0
  7 18  1  0
 18 19  2  0
 19 20  1  0
 19  3  1  0
 15  9  1  0
M  END
>  <original ID>  (219) 
WTIPYLGXRPFERZ-UHFFFAOYSA-N

>  <generation_date>  (219) 
None

>  <alias>  (219) 
None

>  <original SMILES>  (219) 
COc1c(Cl)cc(Nc2ccnc(N)c2OC)cc1Cl

>  <HIPPO ID>  (219) 
51019

>  <tags>  (219) 
[]

>  <ref_pdb>  (219) 
c0270a

>  <method>  (219) 
None

>  <ref_url>  (219) 
None

>  <inchikey>  (219) 
WTIPYLGXRPFERZ-UHFFFAOYSA-N

>  <submitter_email>  (219) 
None

>  <ref_mols>  (219) 
c0935a,c1132a

>  <submitter_name>  (219) 
None

$$$$
XXKITJLXAOBWBE-UHFFFAOYSA-N
     RDKit          3D

 20 21  0  0  0  0  0  0  0  0999 V2000
   21.3951   11.4166   10.5882 C   0  0  0  0  0  0  0  0  0  0  0  0
   19.9710   11.3810   10.5100 O   0  0  0  0  0  0  0  0  0  0  0  0
   19.2953   12.3148   11.2519 C   0  0  0  0  0  0  0  0  0  0  0  0
   19.8690   13.3819   11.9273 C   0  0  0  0  0  0  0  0  0  0  0  0
   19.1650   14.2804   12.6529 N   0  0  0  0  0  0  0  0  0  0  0  0
   17.8281   14.1171   12.7257 C   0  0  0  0  0  0  0  0  0  0  0  0
   17.0655   15.0790   13.5829 C   0  0  0  0  0  0  0  0  0  0  0  0
   17.1643   13.0874   12.0705 C   0  0  0  0  0  0  0  0  0  0  0  0
   17.8962   12.1606   11.3282 C   0  0  0  0  0  0  0  0  0  0  0  0
   17.2807   11.0887   10.6462 N   0  0  0  0  0  0  0  0  0  0  0  0
   16.2773   10.1469   10.9235 C   0  0  0  0  0  0  0  0  0  0  0  0
   15.8586    9.3651    9.8276 C   0  0  0  0  0  0  0  0  0  0  0  0
   14.9463    8.3168    9.9632 C   0  0  0  0  0  0  0  0  0  0  0  0
   14.4720    7.9798   11.2121 C   0  0  0  0  0  0  0  0  0  0  0  0
   13.6174    6.9258   11.3130 O   0  0  0  0  0  0  0  0  0  0  0  0
   14.8017    8.7552   12.3081 C   0  0  0  0  0  0  0  0  0  0  0  0
   15.6274    9.8781   12.1315 C   0  0  0  0  0  0  0  0  0  0  0  0
   15.7154   10.7317   13.2864 N   0  0  0  0  0  4  0  0  0  0  0  0
   16.7925   10.8023   13.8790 O   0  0  0  0  0  0  0  0  0  0  0  0
   14.6672   11.2789   13.6559 O   0  0  0  0  0  1  0  0  0  0  0  0
  1  2  1  0
  2  3  1  0
  3  4  2  0
  4  5  1  0
  5  6  2  0
  6  7  1  0
  6  8  1  0
  8  9  2  0
  9 10  1  0
 10 11  1  0
 11 12  2  0
 12 13  1  0
 13 14  2  0
 14 15  1  0
 14 16  1  0
 16 17  2  0
 17 18  1  0
 18 19  2  0
 18 20  1  0
  9  3  1  0
 17 11  1  0
M  CHG  2  18   1  20  -1
M  END
>  <original ID>  (220) 
XXKITJLXAOBWBE-UHFFFAOYSA-N

>  <generation_date>  (220) 
None

>  <alias>  (220) 
None

>  <original SMILES>  (220) 
COc1cnc(C)cc1Nc1ccc(O)cc1[N+](=O)[O-]

>  <HIPPO ID>  (220) 
51020

>  <tags>  (220) 
[]

>  <ref_pdb>  (220) 
c0270a

>  <method>  (220) 
None

>  <ref_url>  (220) 
None

>  <inchikey>  (220) 
XXKITJLXAOBWBE-UHFFFAOYSA-N

>  <submitter_email>  (220) 
None

>  <ref_mols>  (220) 
c0935a,c1132a

>  <submitter_name>  (220) 
None

$$$$
YGWMDNZLMIEXFA-UHFFFAOYSA-N
     RDKit          3D

 20 21  0  0  0  0  0  0  0  0999 V2000
   13.2339    6.3448   14.1157 C   0  0  0  0  0  0  0  0  0  0  0  0
   13.8941    6.4675   12.8632 O   0  0  0  0  0  0  0  0  0  0  0  0
   14.5403    7.6442   12.6252 C   0  0  0  0  0  0  0  0  0  0  0  0
   14.7621    7.9156   11.2896 C   0  0  0  0  0  0  0  0  0  0  0  0
   15.3606    9.1201   10.9251 C   0  0  0  0  0  0  0  0  0  0  0  0
   15.3701    9.5083    9.0852 Br  0  0  0  0  0  0  0  0  0  0  0  0
   15.8584   10.0639   11.8540 C   0  0  0  0  0  0  0  0  0  0  0  0
   16.5537   11.1727   11.3031 N   0  0  0  0  0  0  0  0  0  0  0  0
   17.1984   12.3076   11.8402 C   0  0  0  0  0  0  0  0  0  0  0  0
   16.4616   13.2935   12.4879 C   0  0  0  0  0  0  0  0  0  0  0  0
   17.1361   14.3836   12.9939 C   0  0  0  0  0  0  0  0  0  0  0  0
   18.4722   14.5414   12.9130 N   0  0  0  0  0  0  0  0  0  0  0  0
   19.1872   13.5837   12.2925 C   0  0  0  0  0  0  0  0  0  0  0  0
   20.5605   13.7980   12.3709 N   0  0  0  0  0  0  0  0  0  0  0  0
   18.5962   12.4689   11.6927 C   0  0  0  0  0  0  0  0  0  0  0  0
   19.2125   11.4691   10.9808 O   0  0  0  0  0  0  0  0  0  0  0  0
   20.6022   11.5824   10.6971 C   0  0  0  0  0  0  0  0  0  0  0  0
   15.5590    9.7940   13.1979 C   0  0  0  0  0  0  0  0  0  0  0  0
   15.9259   10.9481   14.6592 Br  0  0  0  0  0  0  0  0  0  0  0  0
   14.9300    8.5838   13.5755 C   0  0  0  0  0  0  0  0  0  0  0  0
  1  2  1  0
  2  3  1  0
  3  4  2  0
  4  5  1  0
  5  6  1  0
  5  7  2  0
  7  8  1  0
  8  9  1  0
  9 10  2  0
 10 11  1  0
 11 12  2  0
 12 13  1  0
 13 14  1  0
 13 15  2  0
 15 16  1  0
 16 17  1  0
  7 18  1  0
 18 19  1  0
 18 20  2  0
 20  3  1  0
 15  9  1  0
M  END
>  <original ID>  (221) 
YGWMDNZLMIEXFA-UHFFFAOYSA-N

>  <generation_date>  (221) 
None

>  <alias>  (221) 
None

>  <original SMILES>  (221) 
COc1cc(Br)c(Nc2ccnc(N)c2OC)c(Br)c1

>  <HIPPO ID>  (221) 
51021

>  <tags>  (221) 
[]

>  <ref_pdb>  (221) 
c0270a

>  <method>  (221) 
None

>  <ref_url>  (221) 
None

>  <inchikey>  (221) 
YGWMDNZLMIEXFA-UHFFFAOYSA-N

>  <submitter_email>  (221) 
None

>  <ref_mols>  (221) 
c0935a,c1132a

>  <submitter_name>  (221) 
None

$$$$
BJVBITVFWIJMGF-UHFFFAOYSA-N
     RDKit          3D

 20 21  0  0  0  0  0  0  0  0999 V2000
   21.5729   11.5414   10.5414 C   0  0  0  0  0  0  0  0  0  0  0  0
   20.1538   11.4328   10.4544 O   0  0  0  0  0  0  0  0  0  0  0  0
   19.4248   12.3133   11.2089 C   0  0  0  0  0  0  0  0  0  0  0  0
   19.9242   13.4149   11.8853 C   0  0  0  0  0  0  0  0  0  0  0  0
   19.1627   14.2506   12.6313 N   0  0  0  0  0  0  0  0  0  0  0  0
   17.8462   13.9713   12.7397 C   0  0  0  0  0  0  0  0  0  0  0  0
   17.0190   14.8871   13.5885 C   0  0  0  0  0  0  0  0  0  0  0  0
   17.2592   12.8806   12.1108 C   0  0  0  0  0  0  0  0  0  0  0  0
   18.0448   12.0535   11.3051 C   0  0  0  0  0  0  0  0  0  0  0  0
   17.5016   10.9597   10.6036 N   0  0  0  0  0  0  0  0  0  0  0  0
   16.4364   10.0880   10.8455 C   0  0  0  0  0  0  0  0  0  0  0  0
   15.9140    9.3578    9.7754 C   0  0  0  0  0  0  0  0  0  0  0  0
   14.9468    8.3811    9.9774 C   0  0  0  0  0  0  0  0  0  0  0  0
   14.4936    8.1177   11.2635 C   0  0  0  0  0  0  0  0  0  0  0  0
   13.6099    7.0903   11.4337 O   0  0  0  0  0  0  0  0  0  0  0  0
   14.9113    8.9148   12.3380 C   0  0  0  0  0  0  0  0  0  0  0  0
   14.3301    8.7649   13.7048 C   0  0  0  0  0  0  0  0  0  0  0  0
   13.5119    7.9583   14.1035 O   0  0  0  0  0  0  0  0  0  0  0  0
   14.7876    9.7067   14.5560 O   0  0  0  0  0  0  0  0  0  0  0  0
   15.8758    9.9060   12.1086 C   0  0  0  0  0  0  0  0  0  0  0  0
  1  2  1  0
  2  3  1  0
  3  4  2  0
  4  5  1  0
  5  6  2  0
  6  7  1  0
  6  8  1  0
  8  9  2  0
  9 10  1  0
 10 11  1  0
 11 12  2  0
 12 13  1  0
 13 14  2  0
 14 15  1  0
 14 16  1  0
 16 17  1  0
 17 18  2  0
 17 19  1  0
 16 20  2  0
  9  3  1  0
 20 11  1  0
M  END
>  <original ID>  (222) 
BJVBITVFWIJMGF-UHFFFAOYSA-N

>  <generation_date>  (222) 
None

>  <alias>  (222) 
None

>  <original SMILES>  (222) 
COc1cnc(C)cc1Nc1ccc(O)c(C(=O)O)c1

>  <HIPPO ID>  (222) 
51023

>  <tags>  (222) 
[]

>  <ref_pdb>  (222) 
c0270a

>  <method>  (222) 
None

>  <ref_url>  (222) 
None

>  <inchikey>  (222) 
BJVBITVFWIJMGF-UHFFFAOYSA-N

>  <submitter_email>  (222) 
None

>  <ref_mols>  (222) 
c0935a,c1132a

>  <submitter_name>  (222) 
None

$$$$
DBIQRRGMABHUOY-UHFFFAOYSA-N
     RDKit          3D

 20 21  0  0  0  0  0  0  0  0999 V2000
   21.5186   11.5244   10.5670 C   0  0  0  0  0  0  0  0  0  0  0  0
   20.1019   11.4207   10.4484 O   0  0  0  0  0  0  0  0  0  0  0  0
   19.3585   12.2819   11.2107 C   0  0  0  0  0  0  0  0  0  0  0  0
   19.8398   13.3921   11.8853 C   0  0  0  0  0  0  0  0  0  0  0  0
   19.0646   14.2103   12.6347 N   0  0  0  0  0  0  0  0  0  0  0  0
   17.7552   13.9033   12.7526 C   0  0  0  0  0  0  0  0  0  0  0  0
   16.9158   14.8107   13.5982 C   0  0  0  0  0  0  0  0  0  0  0  0
   17.1873   12.7968   12.1332 C   0  0  0  0  0  0  0  0  0  0  0  0
   17.9842   11.9934   11.3152 C   0  0  0  0  0  0  0  0  0  0  0  0
   17.4574   10.8961   10.6084 N   0  0  0  0  0  0  0  0  0  0  0  0
   16.3688   10.0460   10.8134 C   0  0  0  0  0  0  0  0  0  0  0  0
   15.7415    9.4797    9.7044 C   0  0  0  0  0  0  0  0  0  0  0  0
   14.7326    8.5423    9.8678 C   0  0  0  0  0  0  0  0  0  0  0  0
   14.0701    8.1198    8.7866 F   0  0  0  0  0  0  0  0  0  0  0  0
   14.3711    8.0800   11.1255 C   0  0  0  0  0  0  0  0  0  0  0  0
   13.4519    7.0695   11.1392 O   0  0  0  0  0  0  0  0  0  0  0  0
   13.2253    6.3960   12.3679 C   0  0  0  0  0  0  0  0  0  0  0  0
   14.9004    8.7489   12.2258 C   0  0  0  0  0  0  0  0  0  0  0  0
   14.4509    8.5069   13.4655 F   0  0  0  0  0  0  0  0  0  0  0  0
   15.8669    9.7422   12.0763 C   0  0  0  0  0  0  0  0  0  0  0  0
  1  2  1  0
  2  3  1  0
  3  4  2  0
  4  5  1  0
  5  6  2  0
  6  7  1  0
  6  8  1  0
  8  9  2  0
  9 10  1  0
 10 11  1  0
 11 12  2  0
 12 13  1  0
 13 14  1  0
 13 15  2  0
 15 16  1  0
 16 17  1  0
 15 18  1  0
 18 19  1  0
 18 20  2  0
  9  3  1  0
 20 11  1  0
M  END
>  <original ID>  (223) 
DBIQRRGMABHUOY-UHFFFAOYSA-N

>  <generation_date>  (223) 
None

>  <alias>  (223) 
None

>  <original SMILES>  (223) 
COc1cnc(C)cc1Nc1cc(F)c(OC)c(F)c1

>  <HIPPO ID>  (223) 
51026

>  <tags>  (223) 
[]

>  <ref_pdb>  (223) 
c0270a

>  <method>  (223) 
None

>  <ref_url>  (223) 
None

>  <inchikey>  (223) 
DBIQRRGMABHUOY-UHFFFAOYSA-N

>  <submitter_email>  (223) 
None

>  <ref_mols>  (223) 
c0935a,c1132a

>  <submitter_name>  (223) 
None

$$$$
FEODUXSHDQAPDU-UHFFFAOYSA-N
     RDKit          3D

 20 21  0  0  0  0  0  0  0  0999 V2000
   20.8928   10.8616   10.3745 C   0  0  0  0  0  0  0  0  0  0  0  0
   19.5288   10.7371   10.8155 O   0  0  0  0  0  0  0  0  0  0  0  0
   18.8754   11.8040   11.3646 C   0  0  0  0  0  0  0  0  0  0  0  0
   19.4919   13.0525   11.3982 C   0  0  0  0  0  0  0  0  0  0  0  0
   18.9751   14.1416   11.9871 N   0  0  0  0  0  0  0  0  0  0  0  0
   17.7604   14.0170   12.5468 C   0  0  0  0  0  0  0  0  0  0  0  0
   17.2520   15.2083   13.2793 C   0  0  0  0  0  0  0  0  0  0  0  0
   17.0307   12.8373   12.5543 C   0  0  0  0  0  0  0  0  0  0  0  0
   17.5883   11.6769   12.0120 C   0  0  0  0  0  0  0  0  0  0  0  0
   16.9238   10.4597   12.4649 N   0  0  0  0  0  0  0  0  0  0  0  0
   15.9336    9.5810   11.9333 C   0  0  0  0  0  0  0  0  0  0  0  0
   15.2638    8.6483   12.7282 C   0  0  0  0  0  0  0  0  0  0  0  0
   14.4214    7.6725   12.1433 C   0  0  0  0  0  0  0  0  0  0  0  0
   13.7056    6.8600   12.9701 O   0  0  0  0  0  0  0  0  0  0  0  0
   14.2407    7.5503   10.7700 C   0  0  0  0  0  0  0  0  0  0  0  0
   14.8614    8.4671    9.9662 C   0  0  0  0  0  0  0  0  0  0  0  0
   15.6696    9.4229   10.5863 C   0  0  0  0  0  0  0  0  0  0  0  0
   16.3210   10.3074    9.7501 N   0  0  0  0  0  4  0  0  0  0  0  0
   15.6457   11.2798    9.4188 O   0  0  0  0  0  0  0  0  0  0  0  0
   17.4813   10.0110    9.5170 O   0  0  0  0  0  1  0  0  0  0  0  0
  1  2  1  0
  2  3  1  0
  3  4  2  0
  4  5  1  0
  5  6  2  0
  6  7  1  0
  6  8  1  0
  8  9  2  0
  9 10  1  0
 10 11  1  0
 11 12  2  0
 12 13  1  0
 13 14  1  0
 13 15  2  0
 15 16  1  0
 16 17  2  0
 17 18  1  0
 18 19  2  0
 18 20  1  0
  9  3  1  0
 17 11  1  0
M  CHG  2  18   1  20  -1
M  END
>  <original ID>  (224) 
FEODUXSHDQAPDU-UHFFFAOYSA-N

>  <generation_date>  (224) 
None

>  <alias>  (224) 
None

>  <original SMILES>  (224) 
COc1cnc(C)cc1Nc1cc(O)ccc1[N+](=O)[O-]

>  <HIPPO ID>  (224) 
51030

>  <tags>  (224) 
[]

>  <ref_pdb>  (224) 
c0270a

>  <method>  (224) 
None

>  <ref_url>  (224) 
None

>  <inchikey>  (224) 
FEODUXSHDQAPDU-UHFFFAOYSA-N

>  <submitter_email>  (224) 
None

>  <ref_mols>  (224) 
c0935a,c1132a

>  <submitter_name>  (224) 
None

$$$$
USDICSPHHCLJNR-UHFFFAOYSA-N
     RDKit          3D

 20 21  0  0  0  0  0  0  0  0999 V2000
   13.0265    6.3474   10.7556 C   0  0  0  0  0  0  0  0  0  0  0  0
   13.6188    7.0869   11.8150 O   0  0  0  0  0  0  0  0  0  0  0  0
   14.5110    8.0663   11.4710 C   0  0  0  0  0  0  0  0  0  0  0  0
   14.9357    8.2985   10.1727 C   0  0  0  0  0  0  0  0  0  0  0  0
   15.8581    9.3021    9.9171 C   0  0  0  0  0  0  0  0  0  0  0  0
   16.2084    9.4377    8.6132 O   0  0  0  0  0  0  0  0  0  0  0  0
   16.4108   10.0917   10.9274 C   0  0  0  0  0  0  0  0  0  0  0  0
   17.4543   10.9783   10.6152 N   0  0  0  0  0  0  0  0  0  0  0  0
   18.0198   12.0564   11.3318 C   0  0  0  0  0  0  0  0  0  0  0  0
   17.2373   12.9105   12.1122 C   0  0  0  0  0  0  0  0  0  0  0  0
   17.8367   13.9976   12.7345 C   0  0  0  0  0  0  0  0  0  0  0  0
   17.0213   14.9282   13.5785 C   0  0  0  0  0  0  0  0  0  0  0  0
   19.1572   14.2582   12.6273 N   0  0  0  0  0  0  0  0  0  0  0  0
   19.9113   13.4087   11.8893 C   0  0  0  0  0  0  0  0  0  0  0  0
   19.4007   12.3057   11.2245 C   0  0  0  0  0  0  0  0  0  0  0  0
   20.1166   11.4102   10.4750 O   0  0  0  0  0  0  0  0  0  0  0  0
   21.5379   11.5148   10.5473 C   0  0  0  0  0  0  0  0  0  0  0  0
   15.9090    9.9233   12.2157 C   0  0  0  0  0  0  0  0  0  0  0  0
   14.9845    8.9095   12.4884 C   0  0  0  0  0  0  0  0  0  0  0  0
   14.3954    8.7401   14.2897 Br  0  0  0  0  0  0  0  0  0  0  0  0
  1  2  1  0
  2  3  1  0
  3  4  2  0
  4  5  1  0
  5  6  1  0
  5  7  2  0
  7  8  1  0
  8  9  1  0
  9 10  2  0
 10 11  1  0
 11 12  1  0
 11 13  2  0
 13 14  1  0
 14 15  2  0
 15 16  1  0
 16 17  1  0
  7 18  1  0
 18 19  2  0
 19 20  1  0
 19  3  1  0
 15  9  1  0
M  END
>  <original ID>  (225) 
USDICSPHHCLJNR-UHFFFAOYSA-N

>  <generation_date>  (225) 
None

>  <alias>  (225) 
None

>  <original SMILES>  (225) 
COc1cc(O)c(Nc2cc(C)ncc2OC)cc1Br

>  <HIPPO ID>  (225) 
51040

>  <tags>  (225) 
[]

>  <ref_pdb>  (225) 
c0270a

>  <method>  (225) 
None

>  <ref_url>  (225) 
None

>  <inchikey>  (225) 
USDICSPHHCLJNR-UHFFFAOYSA-N

>  <submitter_email>  (225) 
None

>  <ref_mols>  (225) 
c0935a,c1132a

>  <submitter_name>  (225) 
None

$$$$
ATCPEITWUJJPKW-UHFFFAOYSA-N
     RDKit          3D

 20 21  0  0  0  0  0  0  0  0999 V2000
   16.4286   13.4605   14.4338 C   0  0  0  0  0  0  0  0  0  0  0  0
   16.3754   13.4056   13.0163 O   0  0  0  0  0  0  0  0  0  0  0  0
   17.4738   12.8306   12.4221 C   0  0  0  0  0  0  0  0  0  0  0  0
   17.3434   11.5285   11.9185 C   0  0  0  0  0  0  0  0  0  0  0  0
   16.2739   10.7178   12.4255 N   0  0  0  0  0  0  0  0  0  0  0  0
   15.6457    9.5503   11.9323 C   0  0  0  0  0  0  0  0  0  0  0  0
   15.0094    8.6870   12.8272 C   0  0  0  0  0  0  0  0  0  0  0  0
   14.2943    7.5638   12.3665 C   0  0  0  0  0  0  0  0  0  0  0  0
   13.5804    6.8438   13.2731 O   0  0  0  0  0  0  0  0  0  0  0  0
   14.1928    7.2373   11.0253 C   0  0  0  0  0  0  0  0  0  0  0  0
   14.7535    8.1022   10.1244 C   0  0  0  0  0  0  0  0  0  0  0  0
   15.4454    9.2281   10.5969 C   0  0  0  0  0  0  0  0  0  0  0  0
   15.9137   10.0816    9.5815 N   0  0  0  0  0  4  0  0  0  0  0  0
   15.5107   11.2463    9.6041 O   0  0  0  0  0  0  0  0  0  0  0  0
   16.6108    9.5147    8.7484 O   0  0  0  0  0  1  0  0  0  0  0  0
   18.3758   11.0662   11.0940 C   0  0  0  0  0  0  0  0  0  0  0  0
   19.4902   11.8640   10.8736 C   0  0  0  0  0  0  0  0  0  0  0  0
   19.6261   13.1021   11.3784 N   0  0  0  0  0  0  0  0  0  0  0  0
   18.6066   13.5893   12.1026 C   0  0  0  0  0  0  0  0  0  0  0  0
   18.7684   14.8769   12.6179 N   0  0  0  0  0  0  0  0  0  0  0  0
  1  2  1  0
  2  3  1  0
  3  4  2  0
  4  5  1  0
  5  6  1  0
  6  7  2  0
  7  8  1  0
  8  9  1  0
  8 10  2  0
 10 11  1  0
 11 12  2  0
 12 13  1  0
 13 14  2  0
 13 15  1  0
  4 16  1  0
 16 17  2  0
 17 18  1  0
 18 19  2  0
 19 20  1  0
 19  3  1  0
 12  6  1  0
M  CHG  2  13   1  15  -1
M  END
>  <original ID>  (226) 
ATCPEITWUJJPKW-UHFFFAOYSA-N

>  <generation_date>  (226) 
None

>  <alias>  (226) 
None

>  <original SMILES>  (226) 
COc1c(Nc2cc(O)ccc2[N+](=O)[O-])ccnc1N

>  <HIPPO ID>  (226) 
51058

>  <tags>  (226) 
[]

>  <ref_pdb>  (226) 
c0270a

>  <method>  (226) 
None

>  <ref_url>  (226) 
None

>  <inchikey>  (226) 
ATCPEITWUJJPKW-UHFFFAOYSA-N

>  <submitter_email>  (226) 
None

>  <ref_mols>  (226) 
c0935a,c1132a

>  <submitter_name>  (226) 
None

$$$$
ZHQKQOQFXSXUEL-UHFFFAOYSA-N
     RDKit          3D

 20 21  0  0  0  0  0  0  0  0999 V2000
   21.4709   11.2569   10.4923 C   0  0  0  0  0  0  0  0  0  0  0  0
   20.0589   11.3526   10.3896 O   0  0  0  0  0  0  0  0  0  0  0  0
   19.4097   12.2855   11.1563 C   0  0  0  0  0  0  0  0  0  0  0  0
   18.0233   12.0381   11.3006 C   0  0  0  0  0  0  0  0  0  0  0  0
   17.4524   10.9412   10.6200 N   0  0  0  0  0  0  0  0  0  0  0  0
   16.3970   10.0665   10.8920 C   0  0  0  0  0  0  0  0  0  0  0  0
   15.8823    9.2885    9.8466 C   0  0  0  0  0  0  0  0  0  0  0  0
   14.9344    8.2970   10.0853 C   0  0  0  0  0  0  0  0  0  0  0  0
   14.4878    8.0789   11.3779 C   0  0  0  0  0  0  0  0  0  0  0  0
   13.6065    7.0434   11.5452 O   0  0  0  0  0  0  0  0  0  0  0  0
   14.9016    8.9224   12.4178 C   0  0  0  0  0  0  0  0  0  0  0  0
   14.3181    8.7757   13.7691 C   0  0  0  0  0  0  0  0  0  0  0  0
   13.5039    7.9235   14.0861 O   0  0  0  0  0  0  0  0  0  0  0  0
   14.7445    9.6982   14.6461 O   0  0  0  0  0  0  0  0  0  0  0  0
   15.8469    9.9199   12.1638 C   0  0  0  0  0  0  0  0  0  0  0  0
   17.2650   12.8837   12.1056 C   0  0  0  0  0  0  0  0  0  0  0  0
   17.8872   13.9807   12.6650 C   0  0  0  0  0  0  0  0  0  0  0  0
   19.1904   14.2764   12.4867 N   0  0  0  0  0  0  0  0  0  0  0  0
   19.9407   13.4345   11.7473 C   0  0  0  0  0  0  0  0  0  0  0  0
   21.2662   13.8432   11.6153 N   0  0  0  0  0  0  0  0  0  0  0  0
  1  2  1  0
  2  3  1  0
  3  4  2  0
  4  5  1  0
  5  6  1  0
  6  7  2  0
  7  8  1  0
  8  9  2  0
  9 10  1  0
  9 11  1  0
 11 12  1  0
 12 13  2  0
 12 14  1  0
 11 15  2  0
  4 16  1  0
 16 17  2  0
 17 18  1  0
 18 19  2  0
 19 20  1  0
 19  3  1  0
 15  6  1  0
M  END
>  <original ID>  (227) 
ZHQKQOQFXSXUEL-UHFFFAOYSA-N

>  <generation_date>  (227) 
None

>  <alias>  (227) 
None

>  <original SMILES>  (227) 
COc1c(Nc2ccc(O)c(C(=O)O)c2)ccnc1N

>  <HIPPO ID>  (227) 
51064

>  <tags>  (227) 
[]

>  <ref_pdb>  (227) 
c0270a

>  <method>  (227) 
None

>  <ref_url>  (227) 
None

>  <inchikey>  (227) 
ZHQKQOQFXSXUEL-UHFFFAOYSA-N

>  <submitter_email>  (227) 
None

>  <ref_mols>  (227) 
c0935a,c1132a

>  <submitter_name>  (227) 
None

$$$$
DSOBKJDGOQKUHW-UHFFFAOYSA-N
     RDKit          3D

 20 21  0  0  0  0  0  0  0  0999 V2000
   21.3683   11.3214   10.7052 C   0  0  0  0  0  0  0  0  0  0  0  0
   19.9608   11.4495   10.5317 O   0  0  0  0  0  0  0  0  0  0  0  0
   19.2924   12.3753   11.2961 C   0  0  0  0  0  0  0  0  0  0  0  0
   17.8923   12.1748   11.3517 C   0  0  0  0  0  0  0  0  0  0  0  0
   17.3140   11.0772   10.6767 N   0  0  0  0  0  0  0  0  0  0  0  0
   16.2793   10.1557   10.9083 C   0  0  0  0  0  0  0  0  0  0  0  0
   15.8390    9.4344    9.7804 C   0  0  0  0  0  0  0  0  0  0  0  0
   14.9125    8.3928    9.8719 C   0  0  0  0  0  0  0  0  0  0  0  0
   14.4519    7.9929   11.1067 C   0  0  0  0  0  0  0  0  0  0  0  0
   13.5942    6.9390   11.1688 O   0  0  0  0  0  0  0  0  0  0  0  0
   14.8036    8.7068   12.2353 C   0  0  0  0  0  0  0  0  0  0  0  0
   15.6392    9.8299   12.1072 C   0  0  0  0  0  0  0  0  0  0  0  0
   15.7782   10.5834   13.3223 N   0  0  0  0  0  4  0  0  0  0  0  0
   16.3989   10.0494   14.2457 O   0  0  0  0  0  0  0  0  0  0  0  0
   15.1369   11.6333   13.4184 O   0  0  0  0  0  1  0  0  0  0  0  0
   17.1198   13.0990   12.0435 C   0  0  0  0  0  0  0  0  0  0  0  0
   17.7393   14.1308   12.7138 C   0  0  0  0  0  0  0  0  0  0  0  0
   19.0664   14.3275   12.6972 N   0  0  0  0  0  0  0  0  0  0  0  0
   19.8260   13.4730   11.9838 C   0  0  0  0  0  0  0  0  0  0  0  0
   21.1639   13.8263   12.0010 N   0  0  0  0  0  0  0  0  0  0  0  0
  1  2  1  0
  2  3  1  0
  3  4  2  0
  4  5  1  0
  5  6  1  0
  6  7  2  0
  7  8  1  0
  8  9  2  0
  9 10  1  0
  9 11  1  0
 11 12  2  0
 12 13  1  0
 13 14  2  0
 13 15  1  0
  4 16  1  0
 16 17  2  0
 17 18  1  0
 18 19  2  0
 19 20  1  0
 19  3  1  0
 12  6  1  0
M  CHG  2  13   1  15  -1
M  END
>  <original ID>  (228) 
DSOBKJDGOQKUHW-UHFFFAOYSA-N

>  <generation_date>  (228) 
None

>  <alias>  (228) 
None

>  <original SMILES>  (228) 
COc1c(Nc2ccc(O)cc2[N+](=O)[O-])ccnc1N

>  <HIPPO ID>  (228) 
51065

>  <tags>  (228) 
[]

>  <ref_pdb>  (228) 
c0270a

>  <method>  (228) 
None

>  <ref_url>  (228) 
None

>  <inchikey>  (228) 
DSOBKJDGOQKUHW-UHFFFAOYSA-N

>  <submitter_email>  (228) 
None

>  <ref_mols>  (228) 
c0935a,c1132a

>  <submitter_name>  (228) 
None

$$$$
MAQZZBLXAVJFFC-UHFFFAOYSA-N
     RDKit          3D

 20 21  0  0  0  0  0  0  0  0999 V2000
   21.6373   11.5821   10.5446 C   0  0  0  0  0  0  0  0  0  0  0  0
   20.2174   11.4914   10.4701 O   0  0  0  0  0  0  0  0  0  0  0  0
   19.5067   12.3806   11.2309 C   0  0  0  0  0  0  0  0  0  0  0  0
   20.0152   13.4818   11.8982 C   0  0  0  0  0  0  0  0  0  0  0  0
   19.2608   14.3226   12.6461 N   0  0  0  0  0  0  0  0  0  0  0  0
   17.9452   14.0484   12.7718 C   0  0  0  0  0  0  0  0  0  0  0  0
   17.1285   14.9703   13.6241 C   0  0  0  0  0  0  0  0  0  0  0  0
   17.3504   12.9567   12.1555 C   0  0  0  0  0  0  0  0  0  0  0  0
   18.1286   12.1291   11.3434 C   0  0  0  0  0  0  0  0  0  0  0  0
   17.5751   11.0346   10.6566 N   0  0  0  0  0  0  0  0  0  0  0  0
   16.4926   10.2006   10.9236 C   0  0  0  0  0  0  0  0  0  0  0  0
   15.8074    9.6338    9.8549 C   0  0  0  0  0  0  0  0  0  0  0  0
   14.7668    8.7374   10.0684 C   0  0  0  0  0  0  0  0  0  0  0  0
   13.7319    8.4866    8.7256 Cl  0  0  0  0  0  0  0  0  0  0  0  0
   14.4905    8.2724   11.3527 C   0  0  0  0  0  0  0  0  0  0  0  0
   13.6182    7.2813   11.7091 O   0  0  0  0  0  0  0  0  0  0  0  0
   13.3085    6.2775   10.7677 C   0  0  0  0  0  0  0  0  0  0  0  0
   15.0679    8.9679   12.4236 C   0  0  0  0  0  0  0  0  0  0  0  0
   14.5682    8.6884   14.0583 Cl  0  0  0  0  0  0  0  0  0  0  0  0
   16.0337    9.9459   12.2103 C   0  0  0  0  0  0  0  0  0  0  0  0
  1  2  1  0
  2  3  1  0
  3  4  2  0
  4  5  1  0
  5  6  2  0
  6  7  1  0
  6  8  1  0
  8  9  2  0
  9 10  1  0
 10 11  1  0
 11 12  2  0
 12 13  1  0
 13 14  1  0
 13 15  2  0
 15 16  1  0
 16 17  1  0
 15 18  1  0
 18 19  1  0
 18 20  2  0
  9  3  1  0
 20 11  1  0
M  END
>  <original ID>  (229) 
MAQZZBLXAVJFFC-UHFFFAOYSA-N

>  <generation_date>  (229) 
None

>  <alias>  (229) 
None

>  <original SMILES>  (229) 
COc1cnc(C)cc1Nc1cc(Cl)c(OC)c(Cl)c1

>  <HIPPO ID>  (229) 
51125

>  <tags>  (229) 
[]

>  <ref_pdb>  (229) 
c0270a

>  <method>  (229) 
None

>  <ref_url>  (229) 
None

>  <inchikey>  (229) 
MAQZZBLXAVJFFC-UHFFFAOYSA-N

>  <submitter_email>  (229) 
None

>  <ref_mols>  (229) 
c0935a,c1132a

>  <submitter_name>  (229) 
None

$$$$
YGJGTKXOEDOGTB-UHFFFAOYSA-N
     RDKit          3D

 20 21  0  0  0  0  0  0  0  0999 V2000
   13.0178    5.9559   10.9580 C   0  0  0  0  0  0  0  0  0  0  0  0
   13.5399    6.6776   12.0739 O   0  0  0  0  0  0  0  0  0  0  0  0
   14.3999    7.6987   11.7928 C   0  0  0  0  0  0  0  0  0  0  0  0
   14.7230    8.1069   10.5269 C   0  0  0  0  0  0  0  0  0  0  0  0
   15.4837    9.2569   10.3854 C   0  0  0  0  0  0  0  0  0  0  0  0
   15.2919   10.0854    8.7459 Br  0  0  0  0  0  0  0  0  0  0  0  0
   16.1111    9.9637   11.4208 C   0  0  0  0  0  0  0  0  0  0  0  0
   17.0878   10.9064   11.0345 N   0  0  0  0  0  0  0  0  0  0  0  0
   17.7030   12.0591   11.5536 C   0  0  0  0  0  0  0  0  0  0  0  0
   16.9923   12.9988   12.2936 C   0  0  0  0  0  0  0  0  0  0  0  0
   17.6542   14.1121   12.7956 C   0  0  0  0  0  0  0  0  0  0  0  0
   16.9167   15.1120   13.6297 C   0  0  0  0  0  0  0  0  0  0  0  0
   18.9700   14.3335   12.5904 N   0  0  0  0  0  0  0  0  0  0  0  0
   19.6539   13.4214   11.8640 C   0  0  0  0  0  0  0  0  0  0  0  0
   19.0796   12.2818   11.3210 C   0  0  0  0  0  0  0  0  0  0  0  0
   19.7448   11.3424   10.5741 O   0  0  0  0  0  0  0  0  0  0  0  0
   21.1723   11.3899   10.6158 C   0  0  0  0  0  0  0  0  0  0  0  0
   15.6555    9.6162   12.6891 C   0  0  0  0  0  0  0  0  0  0  0  0
   15.9895   10.6039   14.2653 Br  0  0  0  0  0  0  0  0  0  0  0  0
   14.8456    8.4693   12.8706 C   0  0  0  0  0  0  0  0  0  0  0  0
  1  2  1  0
  2  3  1  0
  3  4  2  0
  4  5  1  0
  5  6  1  0
  5  7  2  0
  7  8  1  0
  8  9  1  0
  9 10  2  0
 10 11  1  0
 11 12  1  0
 11 13  2  0
 13 14  1  0
 14 15  2  0
 15 16  1  0
 16 17  1  0
  7 18  1  0
 18 19  1  0
 18 20  2  0
 20  3  1  0
 15  9  1  0
M  END
>  <original ID>  (230) 
YGJGTKXOEDOGTB-UHFFFAOYSA-N

>  <generation_date>  (230) 
None

>  <alias>  (230) 
None

>  <original SMILES>  (230) 
COc1cc(Br)c(Nc2cc(C)ncc2OC)c(Br)c1

>  <HIPPO ID>  (230) 
51126

>  <tags>  (230) 
[]

>  <ref_pdb>  (230) 
c0270a

>  <method>  (230) 
None

>  <ref_url>  (230) 
None

>  <inchikey>  (230) 
YGJGTKXOEDOGTB-UHFFFAOYSA-N

>  <submitter_email>  (230) 
None

>  <ref_mols>  (230) 
c0935a,c1132a

>  <submitter_name>  (230) 
None

$$$$
GGNGZKGVZFACLG-UHFFFAOYSA-N
     RDKit          3D

 20 21  0  0  0  0  0  0  0  0999 V2000
   23.3332   12.7629    9.6157 C   0  0  0  0  0  0  0  0  0  0  0  0
   21.9393   12.7855    9.9110 O   0  0  0  0  0  0  0  0  0  0  0  0
   21.5211   11.5683   10.5227 C   0  0  0  0  0  0  0  0  0  0  0  0
   20.0927   11.4333   10.5285 O   0  0  0  0  0  0  0  0  0  0  0  0
   19.3696   12.3306   11.2698 C   0  0  0  0  0  0  0  0  0  0  0  0
   19.8834   13.4344   11.9383 C   0  0  0  0  0  0  0  0  0  0  0  0
   19.1314   14.2999   12.6549 N   0  0  0  0  0  0  0  0  0  0  0  0
   17.8143   14.0387   12.7230 C   0  0  0  0  0  0  0  0  0  0  0  0
   17.0543   14.8916   13.4211 F   0  0  0  0  0  0  0  0  0  0  0  0
   17.1992   12.9692   12.1028 C   0  0  0  0  0  0  0  0  0  0  0  0
   17.9792   12.0922   11.3552 C   0  0  0  0  0  0  0  0  0  0  0  0
   17.4310   10.9813   10.6859 N   0  0  0  0  0  0  0  0  0  0  0  0
   16.3489   10.1028   10.8748 C   0  0  0  0  0  0  0  0  0  0  0  0
   15.8435    9.5001    9.7062 C   0  0  0  0  0  0  0  0  0  0  0  0
   14.8765    8.5030    9.7422 C   0  0  0  0  0  0  0  0  0  0  0  0
   14.4426    8.0392   10.9634 C   0  0  0  0  0  0  0  0  0  0  0  0
   13.5689    6.9977   11.0432 O   0  0  0  0  0  0  0  0  0  0  0  0
   14.8523    8.6607   12.1333 C   0  0  0  0  0  0  0  0  0  0  0  0
   15.7472    9.7371   12.0891 C   0  0  0  0  0  0  0  0  0  0  0  0
   16.1078   10.4520   13.6160 Cl  0  0  0  0  0  0  0  0  0  0  0  0
  1  2  1  0
  2  3  1  0
  3  4  1  0
  4  5  1  0
  5  6  2  0
  6  7  1  0
  7  8  2  0
  8  9  1  0
  8 10  1  0
 10 11  2  0
 11 12  1  0
 12 13  1  0
 13 14  2  0
 14 15  1  0
 15 16  2  0
 16 17  1  0
 16 18  1  0
 18 19  2  0
 19 20  1  0
 11  5  1  0
 19 13  1  0
M  END
>  <original ID>  (231) 
GGNGZKGVZFACLG-UHFFFAOYSA-N

>  <generation_date>  (231) 
None

>  <alias>  (231) 
None

>  <original SMILES>  (231) 
COCOc1cnc(F)cc1Nc1ccc(O)cc1Cl

>  <HIPPO ID>  (231) 
51141

>  <tags>  (231) 
[]

>  <ref_pdb>  (231) 
c0270a

>  <method>  (231) 
None

>  <ref_url>  (231) 
None

>  <inchikey>  (231) 
GGNGZKGVZFACLG-UHFFFAOYSA-N

>  <submitter_email>  (231) 
None

>  <ref_mols>  (231) 
c0935a,c1132a

>  <submitter_name>  (231) 
None

$$$$
ZJMOPEISEUZZGO-UHFFFAOYSA-N
     RDKit          3D

 21 22  0  0  0  0  0  0  0  0999 V2000
   13.5924    6.9947   11.4261 O   0  0  0  0  0  0  0  0  0  0  0  0
   14.4742    8.0220   11.2666 C   0  0  0  0  0  0  0  0  0  0  0  0
   14.8616    8.3454    9.9792 C   0  0  0  0  0  0  0  0  0  0  0  0
   15.8156    9.3420    9.7812 C   0  0  0  0  0  0  0  0  0  0  0  0
   16.3693   10.0437   10.8630 C   0  0  0  0  0  0  0  0  0  0  0  0
   17.4328   10.9226   10.6053 N   0  0  0  0  0  0  0  0  0  0  0  0
   17.9878   12.0216   11.2905 C   0  0  0  0  0  0  0  0  0  0  0  0
   17.2231   12.8468   12.1123 C   0  0  0  0  0  0  0  0  0  0  0  0
   17.8386   13.9401   12.6895 C   0  0  0  0  0  0  0  0  0  0  0  0
   16.9575   15.0260   13.6770 Cl  0  0  0  0  0  0  0  0  0  0  0  0
   19.1318   14.2682   12.5159 N   0  0  0  0  0  0  0  0  0  0  0  0
   19.8763   13.4316   11.7625 C   0  0  0  0  0  0  0  0  0  0  0  0
   19.3674   12.2916   11.1564 C   0  0  0  0  0  0  0  0  0  0  0  0
   20.0789   11.3871   10.4249 O   0  0  0  0  0  0  0  0  0  0  0  0
   21.4781   11.2843   10.6556 C   0  0  0  0  0  0  0  0  0  0  0  0
   21.8265   10.0029   10.4909 F   0  0  0  0  0  0  0  0  0  0  0  0
   22.1413   12.0384    9.7684 F   0  0  0  0  0  0  0  0  0  0  0  0
   21.8228   11.6391   11.9073 F   0  0  0  0  0  0  0  0  0  0  0  0
   15.8499    9.7841   12.1353 C   0  0  0  0  0  0  0  0  0  0  0  0
   16.3014   10.4435   13.2122 F   0  0  0  0  0  0  0  0  0  0  0  0
   14.9404    8.7534   12.3506 C   0  0  0  0  0  0  0  0  0  0  0  0
  1  2  1  0
  2  3  2  0
  3  4  1  0
  4  5  2  0
  5  6  1  0
  6  7  1  0
  7  8  2  0
  8  9  1  0
  9 10  1  0
  9 11  2  0
 11 12  1  0
 12 13  2  0
 13 14  1  0
 14 15  1  0
 15 16  1  0
 15 17  1  0
 15 18  1  0
  5 19  1  0
 19 20  1  0
 19 21  2  0
 21  2  1  0
 13  7  1  0
M  END
>  <original ID>  (232) 
ZJMOPEISEUZZGO-UHFFFAOYSA-N

>  <generation_date>  (232) 
None

>  <alias>  (232) 
None

>  <original SMILES>  (232) 
Oc1ccc(Nc2cc(Cl)ncc2OC(F)(F)F)c(F)c1

>  <HIPPO ID>  (232) 
51410

>  <tags>  (232) 
[]

>  <ref_pdb>  (232) 
c0270a

>  <method>  (232) 
None

>  <ref_url>  (232) 
None

>  <inchikey>  (232) 
ZJMOPEISEUZZGO-UHFFFAOYSA-N

>  <submitter_email>  (232) 
None

>  <ref_mols>  (232) 
c0935a,c1132a

>  <submitter_name>  (232) 
None

$$$$
QEVXTBJJSFCIOG-UHFFFAOYSA-N
     RDKit          3D

 21 22  0  0  0  0  0  0  0  0999 V2000
   13.5649    6.9560   11.0759 O   0  0  0  0  0  0  0  0  0  0  0  0
   14.4255    8.0075   10.9859 C   0  0  0  0  0  0  0  0  0  0  0  0
   14.8316    8.4829    9.7590 C   0  0  0  0  0  0  0  0  0  0  0  0
   15.7720    9.5042    9.7125 C   0  0  0  0  0  0  0  0  0  0  0  0
   16.2822   10.1121   10.8776 C   0  0  0  0  0  0  0  0  0  0  0  0
   17.3331   11.0228   10.6687 N   0  0  0  0  0  0  0  0  0  0  0  0
   17.9100   12.1054   11.3600 C   0  0  0  0  0  0  0  0  0  0  0  0
   17.1602   12.9837   12.1343 C   0  0  0  0  0  0  0  0  0  0  0  0
   17.8189   14.0272   12.7535 C   0  0  0  0  0  0  0  0  0  0  0  0
   16.9639   15.1623   13.7065 Cl  0  0  0  0  0  0  0  0  0  0  0  0
   19.1413   14.2607   12.6607 N   0  0  0  0  0  0  0  0  0  0  0  0
   19.8646   13.3899   11.9253 C   0  0  0  0  0  0  0  0  0  0  0  0
   19.3043   12.3119   11.2554 C   0  0  0  0  0  0  0  0  0  0  0  0
   19.9658   11.3992   10.4881 O   0  0  0  0  0  0  0  0  0  0  0  0
   21.3818   11.4509   10.4562 C   0  0  0  0  0  0  0  0  0  0  0  0
   21.8032   12.6234    9.9545 F   0  0  0  0  0  0  0  0  0  0  0  0
   21.7898   10.4729    9.6501 F   0  0  0  0  0  0  0  0  0  0  0  0
   21.8929   11.2382   11.6788 F   0  0  0  0  0  0  0  0  0  0  0  0
   15.7151    9.7245   12.1004 C   0  0  0  0  0  0  0  0  0  0  0  0
   16.0891   10.4424   13.6221 Cl  0  0  0  0  0  0  0  0  0  0  0  0
   14.8433    8.6302   12.1532 C   0  0  0  0  0  0  0  0  0  0  0  0
  1  2  1  0
  2  3  2  0
  3  4  1  0
  4  5  2  0
  5  6  1  0
  6  7  1  0
  7  8  2  0
  8  9  1  0
  9 10  1  0
  9 11  2  0
 11 12  1  0
 12 13  2  0
 13 14  1  0
 14 15  1  0
 15 16  1  0
 15 17  1  0
 15 18  1  0
  5 19  1  0
 19 20  1  0
 19 21  2  0
 21  2  1  0
 13  7  1  0
M  END
>  <original ID>  (233) 
QEVXTBJJSFCIOG-UHFFFAOYSA-N

>  <generation_date>  (233) 
None

>  <alias>  (233) 
None

>  <original SMILES>  (233) 
Oc1ccc(Nc2cc(Cl)ncc2OC(F)(F)F)c(Cl)c1

>  <HIPPO ID>  (233) 
51485

>  <tags>  (233) 
[]

>  <ref_pdb>  (233) 
c0270a

>  <method>  (233) 
None

>  <ref_url>  (233) 
None

>  <inchikey>  (233) 
QEVXTBJJSFCIOG-UHFFFAOYSA-N

>  <submitter_email>  (233) 
None

>  <ref_mols>  (233) 
c0935a,c1132a

>  <submitter_name>  (233) 
None

$$$$
SKMOKHMGHJCTBO-UHFFFAOYSA-N
     RDKit          3D

 21 22  0  0  0  0  0  0  0  0999 V2000
   22.5078   11.0425   12.2236 C   0  0  0  0  0  0  0  0  0  0  0  0
   21.8407   10.4256   11.1533 O   0  0  0  0  0  0  0  0  0  0  0  0
   21.3154   11.3579   10.2438 C   0  0  0  0  0  0  0  0  0  0  0  0
   19.8948   11.3979   10.3274 O   0  0  0  0  0  0  0  0  0  0  0  0
   19.2771   12.2918   11.1522 C   0  0  0  0  0  0  0  0  0  0  0  0
   19.8575   13.3843   11.7770 C   0  0  0  0  0  0  0  0  0  0  0  0
   19.1737   14.2607   12.5458 N   0  0  0  0  0  0  0  0  0  0  0  0
   17.8573   14.0313   12.6997 C   0  0  0  0  0  0  0  0  0  0  0  0
   17.1614   14.9029   13.4408 F   0  0  0  0  0  0  0  0  0  0  0  0
   17.1783   12.9824   12.1144 C   0  0  0  0  0  0  0  0  0  0  0  0
   17.8917   12.0819   11.3331 C   0  0  0  0  0  0  0  0  0  0  0  0
   17.2815   10.9945   10.6790 N   0  0  0  0  0  0  0  0  0  0  0  0
   16.2511   10.0708   10.9368 C   0  0  0  0  0  0  0  0  0  0  0  0
   15.7517    9.4122    9.7954 C   0  0  0  0  0  0  0  0  0  0  0  0
   14.8139    8.3888    9.8832 C   0  0  0  0  0  0  0  0  0  0  0  0
   14.3852    7.9456   11.1202 C   0  0  0  0  0  0  0  0  0  0  0  0
   13.4888    6.9180   11.0809 O   0  0  0  0  0  0  0  0  0  0  0  0
   13.1487    6.2880   12.3071 C   0  0  0  0  0  0  0  0  0  0  0  0
   14.8157    8.6186   12.2597 C   0  0  0  0  0  0  0  0  0  0  0  0
   15.6869    9.7238   12.1765 C   0  0  0  0  0  0  0  0  0  0  0  0
   15.9956   10.5175   13.7460 S   0  0  0  0  0  0  0  0  0  0  0  0
  1  2  1  0
  2  3  1  0
  3  4  1  0
  4  5  1  0
  5  6  2  0
  6  7  1  0
  7  8  2  0
  8  9  1  0
  8 10  1  0
 10 11  2  0
 11 12  1  0
 12 13  1  0
 13 14  2  0
 14 15  1  0
 15 16  2  0
 16 17  1  0
 17 18  1  0
 16 19  1  0
 19 20  2  0
 20 21  1  0
 11  5  1  0
 20 13  1  0
M  END
>  <original ID>  (234) 
SKMOKHMGHJCTBO-UHFFFAOYSA-N

>  <generation_date>  (234) 
None

>  <alias>  (234) 
None

>  <original SMILES>  (234) 
COCOc1cnc(F)cc1Nc1ccc(OC)cc1S

>  <HIPPO ID>  (234) 
51598

>  <tags>  (234) 
[]

>  <ref_pdb>  (234) 
c0270a

>  <method>  (234) 
None

>  <ref_url>  (234) 
None

>  <inchikey>  (234) 
SKMOKHMGHJCTBO-UHFFFAOYSA-N

>  <submitter_email>  (234) 
None

>  <ref_mols>  (234) 
c0935a,c1132a

>  <submitter_name>  (234) 
None

$$$$
DLHAXJMWSHXPAN-UHFFFAOYSA-N
     RDKit          3D

 21 22  0  0  0  0  0  0  0  0999 V2000
   22.4204   11.0684   12.3131 C   0  0  0  0  0  0  0  0  0  0  0  0
   22.4585   12.1485   11.4107 O   0  0  0  0  0  0  0  0  0  0  0  0
   21.6387   11.9310   10.2724 C   0  0  0  0  0  0  0  0  0  0  0  0
   20.2692   11.5762   10.5239 O   0  0  0  0  0  0  0  0  0  0  0  0
   19.4795   12.4545   11.2162 C   0  0  0  0  0  0  0  0  0  0  0  0
   19.9188   13.6163   11.8392 C   0  0  0  0  0  0  0  0  0  0  0  0
   19.1253   14.4247   12.5784 N   0  0  0  0  0  0  0  0  0  0  0  0
   17.8459   14.0465   12.7254 C   0  0  0  0  0  0  0  0  0  0  0  0
   17.0522   14.8272   13.4688 F   0  0  0  0  0  0  0  0  0  0  0  0
   17.3004   12.9185   12.1485 C   0  0  0  0  0  0  0  0  0  0  0  0
   18.1143   12.1145   11.3492 C   0  0  0  0  0  0  0  0  0  0  0  0
   17.6005   10.9690   10.7073 N   0  0  0  0  0  0  0  0  0  0  0  0
   16.4906   10.1545   10.9695 C   0  0  0  0  0  0  0  0  0  0  0  0
   15.7934    9.5836    9.9059 C   0  0  0  0  0  0  0  0  0  0  0  0
   14.7694    8.6618   10.1324 C   0  0  0  0  0  0  0  0  0  0  0  0
   13.8572    8.2665    9.0184 C   0  0  0  0  0  0  0  0  0  0  0  0
   14.5161    8.2365   11.4334 C   0  0  0  0  0  0  0  0  0  0  0  0
   13.6530    7.1865   11.5950 O   0  0  0  0  0  0  0  0  0  0  0  0
   15.0661    8.9168   12.5201 C   0  0  0  0  0  0  0  0  0  0  0  0
   14.6790    8.6440   13.9419 C   0  0  0  0  0  0  0  0  0  0  0  0
   16.0395    9.8931   12.2665 C   0  0  0  0  0  0  0  0  0  0  0  0
  1  2  1  0
  2  3  1  0
  3  4  1  0
  4  5  1  0
  5  6  2  0
  6  7  1  0
  7  8  2  0
  8  9  1  0
  8 10  1  0
 10 11  2  0
 11 12  1  0
 12 13  1  0
 13 14  2  0
 14 15  1  0
 15 16  1  0
 15 17  2  0
 17 18  1  0
 17 19  1  0
 19 20  1  0
 19 21  2  0
 11  5  1  0
 21 13  1  0
M  END
>  <original ID>  (235) 
DLHAXJMWSHXPAN-UHFFFAOYSA-N

>  <generation_date>  (235) 
None

>  <alias>  (235) 
None

>  <original SMILES>  (235) 
COCOc1cnc(F)cc1Nc1cc(C)c(O)c(C)c1

>  <HIPPO ID>  (235) 
51720

>  <tags>  (235) 
[]

>  <ref_pdb>  (235) 
c0270a

>  <method>  (235) 
None

>  <ref_url>  (235) 
None

>  <inchikey>  (235) 
DLHAXJMWSHXPAN-UHFFFAOYSA-N

>  <submitter_email>  (235) 
None

>  <ref_mols>  (235) 
c0935a,c1132a

>  <submitter_name>  (235) 
None

$$$$
CENZVJHLDWTHJO-UHFFFAOYSA-N
     RDKit          3D

 21 22  0  0  0  0  0  0  0  0999 V2000
   18.6358   10.3930    9.9612 C   0  0  0  0  0  0  0  0  0  0  0  0
   19.5553   10.6411   10.9936 O   0  0  0  0  0  0  0  0  0  0  0  0
   20.3928   11.6771   10.5866 C   0  0  0  0  0  0  0  0  0  0  0  0
   19.5448   12.7650   10.2690 O   0  0  0  0  0  0  0  0  0  0  0  0
   18.9983   13.1981   11.4487 C   0  0  0  0  0  0  0  0  0  0  0  0
   19.8468   14.1418   12.0390 C   0  0  0  0  0  0  0  0  0  0  0  0
   19.5402   14.8271   13.1316 N   0  0  0  0  0  0  0  0  0  0  0  0
   18.3608   14.5101   13.6695 C   0  0  0  0  0  0  0  0  0  0  0  0
   18.0094   15.1615   14.7744 F   0  0  0  0  0  0  0  0  0  0  0  0
   17.4698   13.5552   13.2103 C   0  0  0  0  0  0  0  0  0  0  0  0
   17.7188   12.8815   12.0216 C   0  0  0  0  0  0  0  0  0  0  0  0
   16.6101   12.2020   11.3741 N   0  0  0  0  0  0  0  0  0  0  0  0
   15.3424   12.9254   11.6566 C   0  0  0  0  0  0  0  0  0  0  0  0
   16.1128   10.8361   11.4090 C   0  0  0  0  0  0  0  0  0  0  0  0
   15.6195   10.2892   10.1923 C   0  0  0  0  0  0  0  0  0  0  0  0
   14.9809    9.0560   10.1305 C   0  0  0  0  0  0  0  0  0  0  0  0
   14.7295    8.3868   11.3150 C   0  0  0  0  0  0  0  0  0  0  0  0
   13.9953    7.2333   11.2833 O   0  0  0  0  0  0  0  0  0  0  0  0
   15.1483    8.9181   12.5472 C   0  0  0  0  0  0  0  0  0  0  0  0
   14.7232    8.2994   13.8458 C   0  0  0  0  0  0  0  0  0  0  0  0
   15.8780   10.1265   12.5834 C   0  0  0  0  0  0  0  0  0  0  0  0
  1  2  1  0
  2  3  1  0
  3  4  1  0
  4  5  1  0
  5  6  2  0
  6  7  1  0
  7  8  2  0
  8  9  1  0
  8 10  1  0
 10 11  2  0
 11 12  1  0
 12 13  1  0
 12 14  1  0
 14 15  2  0
 15 16  1  0
 16 17  2  0
 17 18  1  0
 17 19  1  0
 19 20  1  0
 19 21  2  0
 11  5  1  0
 21 14  1  0
M  END
>  <original ID>  (236) 
CENZVJHLDWTHJO-UHFFFAOYSA-N

>  <generation_date>  (236) 
None

>  <alias>  (236) 
None

>  <original SMILES>  (236) 
COCOc1cnc(F)cc1N(C)c1ccc(O)c(C)c1

>  <HIPPO ID>  (236) 
51721

>  <tags>  (236) 
[]

>  <ref_pdb>  (236) 
c0270a

>  <method>  (236) 
None

>  <ref_url>  (236) 
None

>  <inchikey>  (236) 
CENZVJHLDWTHJO-UHFFFAOYSA-N

>  <submitter_email>  (236) 
None

>  <ref_mols>  (236) 
c0935a,c1132a

>  <submitter_name>  (236) 
None

$$$$
YUSHVRKKNSWTHX-UHFFFAOYSA-N
     RDKit          3D

 21 22  0  0  0  0  0  0  0  0999 V2000
   23.2768   11.5920    9.3979 C   0  0  0  0  0  0  0  0  0  0  0  0
   22.0351   11.0255    9.8032 O   0  0  0  0  0  0  0  0  0  0  0  0
   21.3657   11.8834   10.7043 C   0  0  0  0  0  0  0  0  0  0  0  0
   19.9681   11.5983   10.6835 O   0  0  0  0  0  0  0  0  0  0  0  0
   19.1814   12.4512   11.4126 C   0  0  0  0  0  0  0  0  0  0  0  0
   19.6299   13.5529   12.1323 C   0  0  0  0  0  0  0  0  0  0  0  0
   18.8207   14.3749   12.8289 N   0  0  0  0  0  0  0  0  0  0  0  0
   17.5131   14.0668   12.8366 C   0  0  0  0  0  0  0  0  0  0  0  0
   16.7014   14.8790   13.5218 F   0  0  0  0  0  0  0  0  0  0  0  0
   16.9626   12.9863   12.1760 C   0  0  0  0  0  0  0  0  0  0  0  0
   17.8036   12.1575   11.4389 C   0  0  0  0  0  0  0  0  0  0  0  0
   17.3224   11.0469   10.7223 N   0  0  0  0  0  0  0  0  0  0  0  0
   16.2525   10.1472   10.8678 C   0  0  0  0  0  0  0  0  0  0  0  0
   15.6863    9.6642    9.6767 C   0  0  0  0  0  0  0  0  0  0  0  0
   14.7303    8.6680    9.6969 C   0  0  0  0  0  0  0  0  0  0  0  0
   14.1009    8.3137    8.5739 F   0  0  0  0  0  0  0  0  0  0  0  0
   14.3887    8.0542   10.8836 C   0  0  0  0  0  0  0  0  0  0  0  0
   13.5312    6.9934   10.8891 O   0  0  0  0  0  0  0  0  0  0  0  0
   14.8535    8.5668   12.0825 C   0  0  0  0  0  0  0  0  0  0  0  0
   15.7178    9.6685   12.0785 C   0  0  0  0  0  0  0  0  0  0  0  0
   16.1096   10.3095   13.6299 Cl  0  0  0  0  0  0  0  0  0  0  0  0
  1  2  1  0
  2  3  1  0
  3  4  1  0
  4  5  1  0
  5  6  2  0
  6  7  1  0
  7  8  2  0
  8  9  1  0
  8 10  1  0
 10 11  2  0
 11 12  1  0
 12 13  1  0
 13 14  2  0
 14 15  1  0
 15 16  1  0
 15 17  2  0
 17 18  1  0
 17 19  1  0
 19 20  2  0
 20 21  1  0
 11  5  1  0
 20 13  1  0
M  END
>  <original ID>  (237) 
YUSHVRKKNSWTHX-UHFFFAOYSA-N

>  <generation_date>  (237) 
None

>  <alias>  (237) 
None

>  <original SMILES>  (237) 
COCOc1cnc(F)cc1Nc1cc(F)c(O)cc1Cl

>  <HIPPO ID>  (237) 
51723

>  <tags>  (237) 
[]

>  <ref_pdb>  (237) 
c0270a

>  <method>  (237) 
None

>  <ref_url>  (237) 
None

>  <inchikey>  (237) 
YUSHVRKKNSWTHX-UHFFFAOYSA-N

>  <submitter_email>  (237) 
None

>  <ref_mols>  (237) 
c0935a,c1132a

>  <submitter_name>  (237) 
None

$$$$
GYZNLRFHGQGSKG-UHFFFAOYSA-N
     RDKit          3D

 21 22  0  0  0  0  0  0  0  0999 V2000
   22.6568   11.6615   12.5409 C   0  0  0  0  0  0  0  0  0  0  0  0
   21.7118   10.9109   11.8044 O   0  0  0  0  0  0  0  0  0  0  0  0
   21.3718   11.4942   10.5590 C   0  0  0  0  0  0  0  0  0  0  0  0
   19.9493   11.5484   10.4015 O   0  0  0  0  0  0  0  0  0  0  0  0
   19.2609   12.4212   11.2004 C   0  0  0  0  0  0  0  0  0  0  0  0
   19.7855   13.5587   11.7957 C   0  0  0  0  0  0  0  0  0  0  0  0
   19.0688   14.4090   12.5634 N   0  0  0  0  0  0  0  0  0  0  0  0
   17.7697   14.1106   12.7386 C   0  0  0  0  0  0  0  0  0  0  0  0
   17.0429   14.9444   13.4921 F   0  0  0  0  0  0  0  0  0  0  0  0
   17.1384   13.0225   12.1712 C   0  0  0  0  0  0  0  0  0  0  0  0
   17.8888   12.1532   11.3851 C   0  0  0  0  0  0  0  0  0  0  0  0
   17.3206   11.0254   10.7685 N   0  0  0  0  0  0  0  0  0  0  0  0
   16.2730   10.1340   11.0435 C   0  0  0  0  0  0  0  0  0  0  0  0
   15.6409    9.5802    9.9174 C   0  0  0  0  0  0  0  0  0  0  0  0
   14.6587    8.5929   10.0252 C   0  0  0  0  0  0  0  0  0  0  0  0
   13.7547    8.3465    8.8679 C   0  0  0  0  0  0  0  0  0  0  0  0
   14.4199    8.0384   11.2689 C   0  0  0  0  0  0  0  0  0  0  0  0
   13.5722    6.9877   11.4590 O   0  0  0  0  0  0  0  0  0  0  0  0
   14.9418    8.6398   12.4011 C   0  0  0  0  0  0  0  0  0  0  0  0
   15.8015    9.7483   12.3072 C   0  0  0  0  0  0  0  0  0  0  0  0
   16.1187   10.4258   13.6016 C   0  0  0  0  0  0  0  0  0  0  0  0
  1  2  1  0
  2  3  1  0
  3  4  1  0
  4  5  1  0
  5  6  2  0
  6  7  1  0
  7  8  2  0
  8  9  1  0
  8 10  1  0
 10 11  2  0
 11 12  1  0
 12 13  1  0
 13 14  2  0
 14 15  1  0
 15 16  1  0
 15 17  2  0
 17 18  1  0
 17 19  1  0
 19 20  2  0
 20 21  1  0
 11  5  1  0
 20 13  1  0
M  END
>  <original ID>  (238) 
GYZNLRFHGQGSKG-UHFFFAOYSA-N

>  <generation_date>  (238) 
None

>  <alias>  (238) 
None

>  <original SMILES>  (238) 
COCOc1cnc(F)cc1Nc1cc(C)c(O)cc1C

>  <HIPPO ID>  (238) 
51775

>  <tags>  (238) 
[]

>  <ref_pdb>  (238) 
c0270a

>  <method>  (238) 
None

>  <ref_url>  (238) 
None

>  <inchikey>  (238) 
GYZNLRFHGQGSKG-UHFFFAOYSA-N

>  <submitter_email>  (238) 
None

>  <ref_mols>  (238) 
c0935a,c1132a

>  <submitter_name>  (238) 
None

$$$$
WXVNFVPKDDJHJY-UHFFFAOYSA-N
     RDKit          3D

 21 22  0  0  0  0  0  0  0  0999 V2000
   23.4533   11.8892    9.2044 C   0  0  0  0  0  0  0  0  0  0  0  0
   22.2147   11.2944    9.5827 O   0  0  0  0  0  0  0  0  0  0  0  0
   21.5573   12.0588   10.5715 C   0  0  0  0  0  0  0  0  0  0  0  0
   20.1786   11.6854   10.6288 O   0  0  0  0  0  0  0  0  0  0  0  0
   19.3728   12.4998   11.3793 C   0  0  0  0  0  0  0  0  0  0  0  0
   19.7955   13.5966   12.1207 C   0  0  0  0  0  0  0  0  0  0  0  0
   18.9697   14.3915   12.8323 N   0  0  0  0  0  0  0  0  0  0  0  0
   17.6712   14.0469   12.8471 C   0  0  0  0  0  0  0  0  0  0  0  0
   16.8412   14.8236   13.5523 F   0  0  0  0  0  0  0  0  0  0  0  0
   17.1484   12.9543   12.1857 C   0  0  0  0  0  0  0  0  0  0  0  0
   18.0043   12.1711   11.4130 C   0  0  0  0  0  0  0  0  0  0  0  0
   17.5369   11.0614   10.6874 N   0  0  0  0  0  0  0  0  0  0  0  0
   16.4856   10.1615   10.8907 C   0  0  0  0  0  0  0  0  0  0  0  0
   15.9834    9.4638    9.7947 C   0  0  0  0  0  0  0  0  0  0  0  0
   15.0196    8.4749    9.9500 C   0  0  0  0  0  0  0  0  0  0  0  0
   14.5533    8.1388   11.2160 C   0  0  0  0  0  0  0  0  0  0  0  0
   13.6593    7.1301   11.4577 O   0  0  0  0  0  0  0  0  0  0  0  0
   13.2773    6.3340   10.3434 C   0  0  0  0  0  0  0  0  0  0  0  0
   14.9824    8.8869   12.3243 C   0  0  0  0  0  0  0  0  0  0  0  0
   14.4887    8.6366   13.7218 C   0  0  0  0  0  0  0  0  0  0  0  0
   15.9195    9.9161   12.1404 C   0  0  0  0  0  0  0  0  0  0  0  0
  1  2  1  0
  2  3  1  0
  3  4  1  0
  4  5  1  0
  5  6  2  0
  6  7  1  0
  7  8  2  0
  8  9  1  0
  8 10  1  0
 10 11  2  0
 11 12  1  0
 12 13  1  0
 13 14  2  0
 14 15  1  0
 15 16  2  0
 16 17  1  0
 17 18  1  0
 16 19  1  0
 19 20  1  0
 19 21  2  0
 11  5  1  0
 21 13  1  0
M  END
>  <original ID>  (239) 
WXVNFVPKDDJHJY-UHFFFAOYSA-N

>  <generation_date>  (239) 
None

>  <alias>  (239) 
None

>  <original SMILES>  (239) 
COCOc1cnc(F)cc1Nc1ccc(OC)c(C)c1

>  <HIPPO ID>  (239) 
51806

>  <tags>  (239) 
[]

>  <ref_pdb>  (239) 
c0270a

>  <method>  (239) 
None

>  <ref_url>  (239) 
None

>  <inchikey>  (239) 
WXVNFVPKDDJHJY-UHFFFAOYSA-N

>  <submitter_email>  (239) 
None

>  <ref_mols>  (239) 
c0935a,c1132a

>  <submitter_name>  (239) 
None

$$$$
OAIUGAQCEXNTEL-UHFFFAOYSA-N
     RDKit          3D

 21 22  0  0  0  0  0  0  0  0999 V2000
   22.4354   11.1188   12.3604 C   0  0  0  0  0  0  0  0  0  0  0  0
   22.4535   12.1835   11.4397 O   0  0  0  0  0  0  0  0  0  0  0  0
   21.6666   11.9242   10.2869 C   0  0  0  0  0  0  0  0  0  0  0  0
   20.2953   11.5567   10.5145 O   0  0  0  0  0  0  0  0  0  0  0  0
   19.4854   12.4268   11.1945 C   0  0  0  0  0  0  0  0  0  0  0  0
   19.9027   13.5979   11.8160 C   0  0  0  0  0  0  0  0  0  0  0  0
   19.0930   14.3975   12.5470 N   0  0  0  0  0  0  0  0  0  0  0  0
   17.8184   13.9993   12.6854 C   0  0  0  0  0  0  0  0  0  0  0  0
   17.0086   14.7721   13.4198 F   0  0  0  0  0  0  0  0  0  0  0  0
   17.2918   12.8642   12.1020 C   0  0  0  0  0  0  0  0  0  0  0  0
   18.1225   12.0686   11.3114 C   0  0  0  0  0  0  0  0  0  0  0  0
   17.6358   10.9162   10.6578 N   0  0  0  0  0  0  0  0  0  0  0  0
   16.5348   10.0764   10.8803 C   0  0  0  0  0  0  0  0  0  0  0  0
   15.9653    9.3957    9.8077 C   0  0  0  0  0  0  0  0  0  0  0  0
   14.9603    8.4547   10.0153 C   0  0  0  0  0  0  0  0  0  0  0  0
   14.5136    8.1372   11.3018 C   0  0  0  0  0  0  0  0  0  0  0  0
   13.5466    7.1765   11.2548 O   0  0  0  0  0  0  0  0  0  0  0  0
   13.3822    6.2789   12.3331 C   0  0  0  0  0  0  0  0  0  0  0  0
   15.0139    8.8796   12.3783 C   0  0  0  0  0  0  0  0  0  0  0  0
   14.4233    8.7581   14.4010 I   0  0  0  0  0  0  0  0  0  0  0  0
   15.9948    9.8612   12.1489 C   0  0  0  0  0  0  0  0  0  0  0  0
  1  2  1  0
  2  3  1  0
  3  4  1  0
  4  5  1  0
  5  6  2  0
  6  7  1  0
  7  8  2  0
  8  9  1  0
  8 10  1  0
 10 11  2  0
 11 12  1  0
 12 13  1  0
 13 14  2  0
 14 15  1  0
 15 16  2  0
 16 17  1  0
 17 18  1  0
 16 19  1  0
 19 20  1  0
 19 21  2  0
 11  5  1  0
 21 13  1  0
M  END
>  <original ID>  (240) 
OAIUGAQCEXNTEL-UHFFFAOYSA-N

>  <generation_date>  (240) 
None

>  <alias>  (240) 
None

>  <original SMILES>  (240) 
COCOc1cnc(F)cc1Nc1ccc(OC)c(I)c1

>  <HIPPO ID>  (240) 
51809

>  <tags>  (240) 
[]

>  <ref_pdb>  (240) 
c0270a

>  <method>  (240) 
None

>  <ref_url>  (240) 
None

>  <inchikey>  (240) 
OAIUGAQCEXNTEL-UHFFFAOYSA-N

>  <submitter_email>  (240) 
None

>  <ref_mols>  (240) 
c0935a,c1132a

>  <submitter_name>  (240) 
None

$$$$
ILEZLFGLCAJXBW-UHFFFAOYSA-N
     RDKit          3D

 21 22  0  0  0  0  0  0  0  0999 V2000
   22.9048   12.2879   11.6945 C   0  0  0  0  0  0  0  0  0  0  0  0
   21.7418   13.1118   11.5879 O   0  0  0  0  0  0  0  0  0  0  0  0
   20.6598   12.3982   11.1708 C   0  0  0  0  0  0  0  0  0  0  0  0
   20.9622   11.4237   10.3185 N   0  0  0  0  0  0  0  0  0  0  0  0
   19.9672   10.6681    9.9033 C   0  0  0  0  0  0  0  0  0  0  0  0
   18.6690   10.7945   10.3090 C   0  0  0  0  0  0  0  0  0  0  0  0
   18.3297   11.8103   11.1709 C   0  0  0  0  0  0  0  0  0  0  0  0
   16.9713   11.9554   11.5625 N   0  0  0  0  0  0  0  0  0  0  0  0
   16.0413   10.8894   11.5436 C   0  0  0  0  0  0  0  0  0  0  0  0
   15.5655   10.3451   10.3442 C   0  0  0  0  0  0  0  0  0  0  0  0
   14.8115    9.1643   10.3116 C   0  0  0  0  0  0  0  0  0  0  0  0
   14.1099    8.7945    8.7903 Cl  0  0  0  0  0  0  0  0  0  0  0  0
   14.5531    8.4646   11.4912 C   0  0  0  0  0  0  0  0  0  0  0  0
   13.8379    7.3104   11.6660 O   0  0  0  0  0  0  0  0  0  0  0  0
   13.4302    6.5182   10.5720 C   0  0  0  0  0  0  0  0  0  0  0  0
   14.9632    9.0701   12.6972 C   0  0  0  0  0  0  0  0  0  0  0  0
   14.4763    8.4305   14.2320 Cl  0  0  0  0  0  0  0  0  0  0  0  0
   15.7026   10.2534   12.7272 C   0  0  0  0  0  0  0  0  0  0  0  0
   19.3562   12.6778   11.5967 C   0  0  0  0  0  0  0  0  0  0  0  0
   18.9604   13.6604   12.4555 O   0  0  0  0  0  0  0  0  0  0  0  0
   19.9814   14.4440   13.0622 C   0  0  0  0  0  0  0  0  0  0  0  0
  1  2  1  0
  2  3  1  0
  3  4  2  0
  4  5  1  0
  5  6  2  0
  6  7  1  0
  7  8  1  0
  8  9  1  0
  9 10  2  0
 10 11  1  0
 11 12  1  0
 11 13  2  0
 13 14  1  0
 14 15  1  0
 13 16  1  0
 16 17  1  0
 16 18  2  0
  7 19  2  0
 19 20  1  0
 20 21  1  0
 19  3  1  0
 18  9  1  0
M  END
>  <original ID>  (241) 
ILEZLFGLCAJXBW-UHFFFAOYSA-N

>  <generation_date>  (241) 
None

>  <alias>  (241) 
None

>  <original SMILES>  (241) 
COc1nccc(Nc2cc(Cl)c(OC)c(Cl)c2)c1OC

>  <HIPPO ID>  (241) 
52157

>  <tags>  (241) 
[]

>  <ref_pdb>  (241) 
c0270a

>  <method>  (241) 
None

>  <ref_url>  (241) 
None

>  <inchikey>  (241) 
ILEZLFGLCAJXBW-UHFFFAOYSA-N

>  <submitter_email>  (241) 
None

>  <ref_mols>  (241) 
c0935a,c1132a

>  <submitter_name>  (241) 
None

$$$$
JUFGTUNMOARQBU-UHFFFAOYSA-N
     RDKit          3D

 15 16  0  0  0  0  0  0  0  0999 V2000
   13.6299    7.8131   14.8517 C   0  0  0  0  0  0  0  0  0  0  0  0
   14.9478    7.6782   14.0594 C   0  0  0  0  0  0  0  0  0  0  0  0
   16.1186    8.1764   14.9449 C   0  0  0  0  0  0  0  0  0  0  0  0
   15.1958    6.1654   13.8554 C   0  0  0  0  0  0  0  0  0  0  0  0
   14.8559    8.4555   12.7245 C   0  0  0  0  0  0  0  0  0  0  0  0
   14.8355    7.7921   11.4763 C   0  0  0  0  0  0  0  0  0  0  0  0
   14.8432    8.5084   10.2790 C   0  0  0  0  0  0  0  0  0  0  0  0
   14.8763    9.9003   10.3049 C   0  0  0  0  0  0  0  0  0  0  0  0
   14.8181   10.5991   11.5083 C   0  0  0  0  0  0  0  0  0  0  0  0
   14.7849   11.9503   11.5017 N   0  0  0  0  0  0  0  0  0  0  0  0
   14.6079   12.5605   12.6993 C   0  0  0  0  0  0  0  0  0  0  0  0
   14.9505   14.3986   12.9100 Br  0  0  0  0  0  0  0  0  0  0  0  0
   14.5018   11.8499   13.8673 C   0  0  0  0  0  0  0  0  0  0  0  0
   14.6059   10.5123   13.8944 N   0  0  0  0  0  0  0  0  0  0  0  0
   14.7776    9.8643   12.7290 C   0  0  0  0  0  0  0  0  0  0  0  0
  1  2  1  0
  2  3  1  0
  2  4  1  0
  2  5  1  0
  5  6  2  0
  6  7  1  0
  7  8  2  0
  8  9  1  0
  9 10  2  0
 10 11  1  0
 11 12  1  0
 11 13  2  0
 13 14  1  0
 14 15  2  0
 15  5  1  0
 15  9  1  0
M  END
>  <original ID>  (242) 
JUFGTUNMOARQBU-UHFFFAOYSA-N

>  <generation_date>  (242) 
None

>  <alias>  (242) 
None

>  <original SMILES>  (242) 
CC(C)(C)c1cccc2nc(Br)cnc12

>  <HIPPO ID>  (242) 
64832

>  <tags>  (242) 
[]

>  <ref_pdb>  (242) 
c0300a

>  <method>  (242) 
None

>  <ref_url>  (242) 
None

>  <inchikey>  (242) 
JUFGTUNMOARQBU-UHFFFAOYSA-N

>  <submitter_email>  (242) 
None

>  <ref_mols>  (242) 
c0839a,c1299a

>  <submitter_name>  (242) 
None

$$$$
QRNCWMMEYVNXOS-UHFFFAOYSA-N
     RDKit          3D

 15 16  0  0  0  0  0  0  0  0999 V2000
   14.7417   13.7455   13.5791 C   0  0  0  0  0  0  0  0  0  0  0  0
   14.4320   12.8100   12.3985 C   0  0  0  0  0  0  0  0  0  0  0  0
   15.2728   13.0584   11.2014 C   0  0  0  0  0  0  0  0  0  0  0  0
   13.0829   13.1097   11.8350 C   0  0  0  0  0  0  0  0  0  0  0  0
   14.5642   11.3486   12.6674 C   0  0  0  0  0  0  0  0  0  0  0  0
   14.6849   10.7960   13.9139 C   0  0  0  0  0  0  0  0  0  0  0  0
   14.8478    9.4733   14.0674 N   0  0  0  0  0  0  0  0  0  0  0  0
   14.8694    8.6988   12.9472 C   0  0  0  0  0  0  0  0  0  0  0  0
   14.9594    7.3148   12.9980 C   0  0  0  0  0  0  0  0  0  0  0  0
   15.2042    6.4724   14.6733 Br  0  0  0  0  0  0  0  0  0  0  0  0
   14.8537    6.5195   11.8522 C   0  0  0  0  0  0  0  0  0  0  0  0
   14.6846    7.1157   10.6098 C   0  0  0  0  0  0  0  0  0  0  0  0
   14.6912    8.4973   10.5151 C   0  0  0  0  0  0  0  0  0  0  0  0
   14.7599    9.2705   11.6669 C   0  0  0  0  0  0  0  0  0  0  0  0
   14.6351   10.5816   11.5433 N   0  0  0  0  0  0  0  0  0  0  0  0
  1  2  1  0
  2  3  1  0
  2  4  1  0
  2  5  1  0
  5  6  2  0
  6  7  1  0
  7  8  2  0
  8  9  1  0
  9 10  1  0
  9 11  2  0
 11 12  1  0
 12 13  2  0
 13 14  1  0
 14 15  2  0
 15  5  1  0
 14  8  1  0
M  END
>  <original ID>  (243) 
QRNCWMMEYVNXOS-UHFFFAOYSA-N

>  <generation_date>  (243) 
None

>  <alias>  (243) 
None

>  <original SMILES>  (243) 
CC(C)(C)c1cnc2c(Br)cccc2n1

>  <HIPPO ID>  (243) 
64833

>  <tags>  (243) 
[]

>  <ref_pdb>  (243) 
c0300a

>  <method>  (243) 
None

>  <ref_url>  (243) 
None

>  <inchikey>  (243) 
QRNCWMMEYVNXOS-UHFFFAOYSA-N

>  <submitter_email>  (243) 
None

>  <ref_mols>  (243) 
c0839a,c1299a

>  <submitter_name>  (243) 
None

$$$$
JTUUSNXYJPBCAQ-HCJPZQEFSA-N
     RDKit          3D

 15 18  0  0  0  0  0  0  0  0999 V2000
   14.8415    7.3861   13.3424 F   0  0  0  0  0  0  0  0  0  0  0  0
   14.8279    8.2838   12.3458 C   0  0  0  0  0  0  0  0  0  0  0  0
   14.8127    7.8197   11.0330 C   0  0  0  0  0  0  0  0  0  0  0  0
   14.8448    8.7433    9.9998 C   0  0  0  0  0  0  0  0  0  0  0  0
   14.8673   10.1106   10.2995 C   0  0  0  0  0  0  0  0  0  0  0  0
   14.8232   10.5936   11.6146 C   0  0  0  0  0  0  0  0  0  0  0  0
   14.7478   11.9273   11.8856 N   0  0  0  0  0  0  0  0  0  0  0  0
   14.6272   12.3240   13.1905 C   0  0  0  0  0  0  0  0  0  0  0  0
   14.4642   13.7615   13.5768 C   0  0  2  0  0  0  0  0  0  0  0  0
   14.1241   14.3084   14.9329 C   0  0  0  0  0  0  0  0  0  0  0  0
   15.5279   14.4128   14.4718 C   0  0  2  0  0  0  0  0  0  0  0  0
   15.2333   14.9435   13.1180 C   0  0  0  0  0  0  0  0  0  0  0  0
   14.6744   11.3483   14.1763 C   0  0  0  0  0  0  0  0  0  0  0  0
   14.7763   10.0265   13.9447 N   0  0  0  0  0  0  0  0  0  0  0  0
   14.8260    9.6440   12.6605 C   0  0  0  0  0  0  0  0  0  0  0  0
  1  2  1  0
  2  3  2  0
  3  4  1  0
  4  5  2  0
  5  6  1  0
  6  7  2  0
  7  8  1  0
  9  8  1  6
  9 10  1  0
 11 10  1  1
 11 12  1  0
  8 13  2  0
 13 14  1  0
 14 15  2  0
 15  2  1  0
 15  6  1  0
 11  9  1  0
 12  9  1  0
M  END
>  <original ID>  (244) 
JTUUSNXYJPBCAQ-HCJPZQEFSA-N

>  <generation_date>  (244) 
None

>  <alias>  (244) 
None

>  <original SMILES>  (244) 
Fc1cccc2nc([C@]34C[C@H]3C4)cnc12

>  <HIPPO ID>  (244) 
64836

>  <tags>  (244) 
[]

>  <ref_pdb>  (244) 
c0300a

>  <method>  (244) 
None

>  <ref_url>  (244) 
None

>  <inchikey>  (244) 
JTUUSNXYJPBCAQ-HCJPZQEFSA-N

>  <submitter_email>  (244) 
None

>  <ref_mols>  (244) 
c0839a,c1299a

>  <submitter_name>  (244) 
None

$$$$
WKWFATFSDWZIJI-UHFFFAOYSA-N
     RDKit          3D

 15 16  0  0  0  0  0  0  0  0999 V2000
   14.5230   13.8079   12.2202 C   0  0  0  0  0  0  0  0  0  0  0  0
   14.6535   12.3817   12.5531 C   0  0  0  0  0  0  0  0  0  0  0  0
   14.6968   11.5823   11.4472 N   0  0  0  0  0  0  0  0  0  0  0  0
   14.8212   10.2669   11.6360 C   0  0  0  0  0  0  0  0  0  0  0  0
   14.8028    9.4016   10.5365 C   0  0  0  0  0  0  0  0  0  0  0  0
   14.7921    8.0181   10.7136 C   0  0  0  0  0  0  0  0  0  0  0  0
   14.8562    7.4994   12.0034 C   0  0  0  0  0  0  0  0  0  0  0  0
   14.9346    8.3678   13.1032 C   0  0  0  0  0  0  0  0  0  0  0  0
   14.9131    9.7530   12.9468 C   0  0  0  0  0  0  0  0  0  0  0  0
   14.9682   10.5732   14.0270 N   0  0  0  0  0  0  0  0  0  0  0  0
   14.8750   11.9189   13.8433 C   0  0  0  0  0  0  0  0  0  0  0  0
   15.0570   12.8493   15.0666 C   0  0  0  0  0  0  0  0  0  0  0  0
   13.7952   13.6761   15.3512 C   0  0  0  0  0  0  0  0  0  0  0  0
   16.2244   13.8587   14.9857 C   0  0  0  0  0  0  0  0  0  0  0  0
   15.3880   11.9996   16.3091 C   0  0  0  0  0  0  0  0  0  0  0  0
  1  2  1  0
  2  3  2  0
  3  4  1  0
  4  5  2  0
  5  6  1  0
  6  7  2  0
  7  8  1  0
  8  9  2  0
  9 10  1  0
 10 11  2  0
 11 12  1  0
 12 13  1  0
 12 14  1  0
 12 15  1  0
 11  2  1  0
  9  4  1  0
M  END
>  <original ID>  (245) 
WKWFATFSDWZIJI-UHFFFAOYSA-N

>  <generation_date>  (245) 
None

>  <alias>  (245) 
None

>  <original SMILES>  (245) 
Cc1nc2ccccc2nc1C(C)(C)C

>  <HIPPO ID>  (245) 
64840

>  <tags>  (245) 
[]

>  <ref_pdb>  (245) 
c0300a

>  <method>  (245) 
None

>  <ref_url>  (245) 
None

>  <inchikey>  (245) 
WKWFATFSDWZIJI-UHFFFAOYSA-N

>  <submitter_email>  (245) 
None

>  <ref_mols>  (245) 
c0839a,c1299a

>  <submitter_name>  (245) 
None

$$$$
PGIGZODAHKJMEK-HCJPZQEFSA-N
     RDKit          3D

 15 18  0  0  0  0  0  0  0  0999 V2000
   14.9107   14.3007   12.9097 Br  0  0  0  0  0  0  0  0  0  0  0  0
   14.6181   12.4553   12.6880 C   0  0  0  0  0  0  0  0  0  0  0  0
   14.5647   11.7139   13.8444 C   0  0  0  0  0  0  0  0  0  0  0  0
   14.6765   10.3743   13.8391 N   0  0  0  0  0  0  0  0  0  0  0  0
   14.7960    9.7658   12.6415 C   0  0  0  0  0  0  0  0  0  0  0  0
   14.8496    8.3592   12.6002 C   0  0  0  0  0  0  0  0  0  0  0  0
   14.9720    7.6075   13.8806 C   0  0  2  0  0  0  0  0  0  0  0  0
   13.9899    7.5582   14.9933 C   0  0  0  0  0  0  0  0  0  0  0  0
   14.1599    6.3460   14.1473 C   0  0  2  0  0  0  0  0  0  0  0  0
   15.6527    6.3181   14.1363 C   0  0  0  0  0  0  0  0  0  0  0  0
   14.8314    7.7268   11.3392 C   0  0  0  0  0  0  0  0  0  0  0  0
   14.8304    8.4694   10.1608 C   0  0  0  0  0  0  0  0  0  0  0  0
   14.8599    9.8602   10.2198 C   0  0  0  0  0  0  0  0  0  0  0  0
   14.8157   10.5297   11.4401 C   0  0  0  0  0  0  0  0  0  0  0  0
   14.7720   11.8792   11.4705 N   0  0  0  0  0  0  0  0  0  0  0  0
  1  2  1  0
  2  3  2  0
  3  4  1  0
  4  5  2  0
  5  6  1  0
  7  6  1  6
  7  8  1  0
  9  8  1  1
  9 10  1  0
  6 11  2  0
 11 12  1  0
 12 13  2  0
 13 14  1  0
 14 15  2  0
 15  2  1  0
 14  5  1  0
  9  7  1  0
 10  7  1  0
M  END
>  <original ID>  (246) 
PGIGZODAHKJMEK-HCJPZQEFSA-N

>  <generation_date>  (246) 
None

>  <alias>  (246) 
None

>  <original SMILES>  (246) 
Brc1cnc2c(cccc2[C@]23C[C@H]2C3)n1

>  <HIPPO ID>  (246) 
64843

>  <tags>  (246) 
[]

>  <ref_pdb>  (246) 
c0300a

>  <method>  (246) 
None

>  <ref_url>  (246) 
None

>  <inchikey>  (246) 
PGIGZODAHKJMEK-HCJPZQEFSA-N

>  <submitter_email>  (246) 
None

>  <ref_mols>  (246) 
c0839a,c1299a

>  <submitter_name>  (246) 
None

$$$$
BTDHBCPELWBABO-HCJPZQEFSA-N
     RDKit          3D

 15 18  0  0  0  0  0  0  0  0999 V2000
   14.9100    7.0112   13.7897 Br  0  0  0  0  0  0  0  0  0  0  0  0
   14.8393    8.2893   12.3846 C   0  0  0  0  0  0  0  0  0  0  0  0
   14.8172    7.8259   11.0669 C   0  0  0  0  0  0  0  0  0  0  0  0
   14.8396    8.7497   10.0322 C   0  0  0  0  0  0  0  0  0  0  0  0
   14.8595   10.1173   10.3278 C   0  0  0  0  0  0  0  0  0  0  0  0
   14.8190   10.6038   11.6403 C   0  0  0  0  0  0  0  0  0  0  0  0
   14.7435   11.9410   11.8978 N   0  0  0  0  0  0  0  0  0  0  0  0
   14.6296   12.3531   13.1978 C   0  0  0  0  0  0  0  0  0  0  0  0
   14.4723   13.7936   13.5752 C   0  0  2  0  0  0  0  0  0  0  0  0
   14.1269   14.3469   14.9282 C   0  0  0  0  0  0  0  0  0  0  0  0
   15.5340   14.4423   14.4751 C   0  0  2  0  0  0  0  0  0  0  0  0
   15.2493   14.9710   13.1188 C   0  0  0  0  0  0  0  0  0  0  0  0
   14.6806   11.3888   14.1916 C   0  0  0  0  0  0  0  0  0  0  0  0
   14.7830   10.0666   13.9712 N   0  0  0  0  0  0  0  0  0  0  0  0
   14.8288    9.6586   12.6926 C   0  0  0  0  0  0  0  0  0  0  0  0
  1  2  1  0
  2  3  2  0
  3  4  1  0
  4  5  2  0
  5  6  1  0
  6  7  2  0
  7  8  1  0
  9  8  1  6
  9 10  1  0
 11 10  1  1
 11 12  1  0
  8 13  2  0
 13 14  1  0
 14 15  2  0
 15  2  1  0
 15  6  1  0
 11  9  1  0
 12  9  1  0
M  END
>  <original ID>  (247) 
BTDHBCPELWBABO-HCJPZQEFSA-N

>  <generation_date>  (247) 
None

>  <alias>  (247) 
None

>  <original SMILES>  (247) 
Brc1cccc2nc([C@]34C[C@H]3C4)cnc12

>  <HIPPO ID>  (247) 
64850

>  <tags>  (247) 
[]

>  <ref_pdb>  (247) 
c0300a

>  <method>  (247) 
None

>  <ref_url>  (247) 
None

>  <inchikey>  (247) 
BTDHBCPELWBABO-HCJPZQEFSA-N

>  <submitter_email>  (247) 
None

>  <ref_mols>  (247) 
c0839a,c1299a

>  <submitter_name>  (247) 
None

$$$$
JTWXPXYTTCHQFH-GMZHKTEUSA-N
     RDKit          3D

 15 18  0  0  0  0  0  0  0  0999 V2000
   13.9662   13.2595   11.7718 C   0  0  0  0  0  0  0  0  0  0  0  0
   14.5441   11.9330   12.0535 C   0  0  0  0  0  0  0  0  0  0  0  0
   14.6344   11.0923   10.9976 N   0  0  0  0  0  0  0  0  0  0  0  0
   14.8065    9.8053   11.2983 C   0  0  0  0  0  0  0  0  0  0  0  0
   14.7426    8.8620   10.2803 C   0  0  0  0  0  0  0  0  0  0  0  0
   14.7291    7.5031   10.5812 C   0  0  0  0  0  0  0  0  0  0  0  0
   14.8532    7.0853   11.9022 C   0  0  0  0  0  0  0  0  0  0  0  0
   14.9667    8.0306   12.9254 C   0  0  0  0  0  0  0  0  0  0  0  0
   14.9329    9.3920   12.6527 C   0  0  0  0  0  0  0  0  0  0  0  0
   15.0160   10.2812   13.6674 N   0  0  0  0  0  0  0  0  0  0  0  0
   14.8462   11.5905   13.3728 C   0  0  0  0  0  0  0  0  0  0  0  0
   15.1648   12.6600   14.3660 C   0  0  1  0  0  0  0  0  0  0  0  0
   16.2563   12.6409   15.3751 C   0  0  0  0  0  0  0  0  0  0  0  0
   14.8510   12.4893   15.8374 C   0  0  1  0  0  0  0  0  0  0  0  0
   14.2784   13.6227   15.0546 C   0  0  0  0  0  0  0  0  0  0  0  0
  1  2  1  0
  2  3  2  0
  3  4  1  0
  4  5  2  0
  5  6  1  0
  6  7  2  0
  7  8  1  0
  8  9  2  0
  9 10  1  0
 10 11  2  0
 12 11  1  6
 12 13  1  0
 14 13  1  1
 14 15  1  0
 11  2  1  0
 14 12  1  0
  9  4  1  0
 15 12  1  0
M  END
>  <original ID>  (248) 
JTWXPXYTTCHQFH-GMZHKTEUSA-N

>  <generation_date>  (248) 
None

>  <alias>  (248) 
None

>  <original SMILES>  (248) 
Cc1nc2ccccc2nc1[C@]12C[C@H]1C2

>  <HIPPO ID>  (248) 
64854

>  <tags>  (248) 
[]

>  <ref_pdb>  (248) 
c0300a

>  <method>  (248) 
None

>  <ref_url>  (248) 
None

>  <inchikey>  (248) 
JTWXPXYTTCHQFH-GMZHKTEUSA-N

>  <submitter_email>  (248) 
None

>  <ref_mols>  (248) 
c0839a,c1299a

>  <submitter_name>  (248) 
None

$$$$
OLWIDISBXMDCPO-UHFFFAOYSA-N
     RDKit          3D

 15 16  0  0  0  0  0  0  0  0999 V2000
   13.4845   13.1836   11.3299 C   0  0  0  0  0  0  0  0  0  0  0  0
   14.3060   13.0958   12.6364 C   0  0  0  0  0  0  0  0  0  0  0  0
   15.2457   14.2885   12.6714 C   0  0  0  0  0  0  0  0  0  0  0  0
   13.4947   13.2584   13.9179 C   0  0  0  0  0  0  0  0  0  0  0  0
   14.8491   11.6814   12.6228 C   0  0  0  0  0  0  0  0  0  0  0  0
   15.1503   10.9840   13.7775 C   0  0  0  0  0  0  0  0  0  0  0  0
   15.1750    9.6450   13.8123 N   0  0  0  0  0  0  0  0  0  0  0  0
   14.9672    9.0044   12.6451 C   0  0  0  0  0  0  0  0  0  0  0  0
   14.8723    7.6249   12.6048 C   0  0  0  0  0  0  0  0  0  0  0  0
   14.9770    6.9356   13.7479 F   0  0  0  0  0  0  0  0  0  0  0  0
   14.6593    6.9327   11.4189 C   0  0  0  0  0  0  0  0  0  0  0  0
   14.5652    7.6391   10.2277 C   0  0  0  0  0  0  0  0  0  0  0  0
   14.7116    9.0220   10.2270 C   0  0  0  0  0  0  0  0  0  0  0  0
   14.8700    9.7081   11.4257 C   0  0  0  0  0  0  0  0  0  0  0  0
   14.8629   11.0422   11.4241 N   0  0  0  0  0  0  0  0  0  0  0  0
  1  2  1  0
  2  3  1  0
  2  4  1  0
  2  5  1  0
  5  6  2  0
  6  7  1  0
  7  8  2  0
  8  9  1  0
  9 10  1  0
  9 11  2  0
 11 12  1  0
 12 13  2  0
 13 14  1  0
 14 15  2  0
 15  5  1  0
 14  8  1  0
M  END
>  <original ID>  (249) 
OLWIDISBXMDCPO-UHFFFAOYSA-N

>  <generation_date>  (249) 
None

>  <alias>  (249) 
None

>  <original SMILES>  (249) 
CC(C)(C)c1cnc2c(F)cccc2n1

>  <HIPPO ID>  (249) 
64857

>  <tags>  (249) 
[]

>  <ref_pdb>  (249) 
c0300a

>  <method>  (249) 
None

>  <ref_url>  (249) 
None

>  <inchikey>  (249) 
OLWIDISBXMDCPO-UHFFFAOYSA-N

>  <submitter_email>  (249) 
None

>  <ref_mols>  (249) 
c0839a,c1299a

>  <submitter_name>  (249) 
None

$$$$
MSUUDFBCQHWZPP-UHFFFAOYSA-N
     RDKit          3D

 15 17  0  0  0  0  0  0  0  0999 V2000
   12.9070   13.6846   10.7087 O   0  0  0  0  0  0  0  0  0  0  0  0
   13.1440   13.0564   11.9344 C   0  0  0  0  0  0  0  0  0  0  0  0
   14.4592   13.1781   12.6291 C   0  0  0  0  0  0  0  0  0  0  0  0
   14.9521   11.7604   12.6838 C   0  0  0  0  0  0  0  0  0  0  0  0
   14.9180   10.9903   13.8410 C   0  0  0  0  0  0  0  0  0  0  0  0
   14.9186    9.6436   13.8345 N   0  0  0  0  0  0  0  0  0  0  0  0
   14.8864    9.0607   12.6271 C   0  0  0  0  0  0  0  0  0  0  0  0
   14.7478    7.6847   12.5450 C   0  0  0  0  0  0  0  0  0  0  0  0
   14.6043    7.0582   11.3107 C   0  0  0  0  0  0  0  0  0  0  0  0
   14.6269    7.8176   10.1469 C   0  0  0  0  0  0  0  0  0  0  0  0
   14.8460    9.1892   10.2033 C   0  0  0  0  0  0  0  0  0  0  0  0
   14.9558    9.8231   11.4315 C   0  0  0  0  0  0  0  0  0  0  0  0
   15.0852   11.1551   11.4747 N   0  0  0  0  0  0  0  0  0  0  0  0
   15.0517   14.5590   12.7635 C   0  0  0  0  0  0  0  0  0  0  0  0
   14.6346   13.8955   14.0072 C   0  0  0  0  0  0  0  0  0  0  0  0
  1  2  1  0
  2  3  1  0
  3  4  1  0
  4  5  2  0
  5  6  1  0
  6  7  2  0
  7  8  1  0
  8  9  2  0
  9 10  1  0
 10 11  2  0
 11 12  1  0
 12 13  2  0
  3 14  1  0
 14 15  1  0
 15  3  1  0
 13  4  1  0
 12  7  1  0
M  END
>  <original ID>  (250) 
MSUUDFBCQHWZPP-UHFFFAOYSA-N

>  <generation_date>  (250) 
None

>  <alias>  (250) 
None

>  <original SMILES>  (250) 
OCC1(c2cnc3ccccc3n2)CC1

>  <HIPPO ID>  (250) 
64861

>  <tags>  (250) 
[]

>  <ref_pdb>  (250) 
c0300a

>  <method>  (250) 
None

>  <ref_url>  (250) 
None

>  <inchikey>  (250) 
MSUUDFBCQHWZPP-UHFFFAOYSA-N

>  <submitter_email>  (250) 
None

>  <ref_mols>  (250) 
c0839a,c1299a

>  <submitter_name>  (250) 
None

$$$$
WDVMKVYJGGWGTP-UHFFFAOYSA-N
     RDKit          3D

 16 18  0  0  0  0  0  0  0  0999 V2000
   13.7857    5.5870   13.4990 O   0  0  0  0  0  0  0  0  0  0  0  0
   15.0789    6.0504   13.8690 C   0  0  0  0  0  0  0  0  0  0  0  0
   15.0499    7.5596   14.0312 C   0  0  0  0  0  0  0  0  0  0  0  0
   14.8683    8.4103   12.7199 C   0  0  0  0  0  0  0  0  0  0  0  0
   14.8258    7.7772   11.4503 C   0  0  0  0  0  0  0  0  0  0  0  0
   14.8221    8.4977   10.2554 C   0  0  0  0  0  0  0  0  0  0  0  0
   14.8622    9.8854   10.2905 C   0  0  0  0  0  0  0  0  0  0  0  0
   14.8131   10.5702   11.4993 C   0  0  0  0  0  0  0  0  0  0  0  0
   14.7782   11.9221   11.4917 N   0  0  0  0  0  0  0  0  0  0  0  0
   14.6081   12.5348   12.6874 C   0  0  0  0  0  0  0  0  0  0  0  0
   14.9395   14.3746   12.8934 Br  0  0  0  0  0  0  0  0  0  0  0  0
   14.5192   11.8260   13.8559 C   0  0  0  0  0  0  0  0  0  0  0  0
   14.6316   10.4894   13.8822 N   0  0  0  0  0  0  0  0  0  0  0  0
   14.7843    9.8275   12.7189 C   0  0  0  0  0  0  0  0  0  0  0  0
   14.5004    8.0261   15.3714 C   0  0  0  0  0  0  0  0  0  0  0  0
   15.9766    8.1158   15.1080 C   0  0  0  0  0  0  0  0  0  0  0  0
  1  2  1  0
  2  3  1  0
  3  4  1  0
  4  5  2  0
  5  6  1  0
  6  7  2  0
  7  8  1  0
  8  9  2  0
  9 10  1  0
 10 11  1  0
 10 12  2  0
 12 13  1  0
 13 14  2  0
  3 15  1  0
 15 16  1  0
 16  3  1  0
 14  4  1  0
 14  8  1  0
M  END
>  <original ID>  (251) 
WDVMKVYJGGWGTP-UHFFFAOYSA-N

>  <generation_date>  (251) 
None

>  <alias>  (251) 
None

>  <original SMILES>  (251) 
OCC1(c2cccc3nc(Br)cnc23)CC1

>  <HIPPO ID>  (251) 
64878

>  <tags>  (251) 
[]

>  <ref_pdb>  (251) 
c0300a

>  <method>  (251) 
None

>  <ref_url>  (251) 
None

>  <inchikey>  (251) 
WDVMKVYJGGWGTP-UHFFFAOYSA-N

>  <submitter_email>  (251) 
None

>  <ref_mols>  (251) 
c0839a,c1299a

>  <submitter_name>  (251) 
None

$$$$
UIXWQVOBYGMCMD-UHFFFAOYSA-N
     RDKit          3D

 16 18  0  0  0  0  0  0  0  0999 V2000
   13.4925   15.7748   15.1147 O   0  0  0  0  0  0  0  0  0  0  0  0
   13.6712   14.3607   15.0380 C   0  0  0  0  0  0  0  0  0  0  0  0
   14.7862   14.0045   14.1025 C   0  0  0  0  0  0  0  0  0  0  0  0
   14.7984   12.5399   13.6124 C   0  0  0  0  0  0  0  0  0  0  0  0
   14.8590   11.5209   14.5491 C   0  0  0  0  0  0  0  0  0  0  0  0
   14.8554   10.2028   14.2524 N   0  0  0  0  0  0  0  0  0  0  0  0
   14.8358    9.8656   12.9497 C   0  0  0  0  0  0  0  0  0  0  0  0
   14.8300    8.5188   12.5633 C   0  0  0  0  0  0  0  0  0  0  0  0
   14.8652    7.5700   13.5109 F   0  0  0  0  0  0  0  0  0  0  0  0
   14.7977    8.1124   11.2267 C   0  0  0  0  0  0  0  0  0  0  0  0
   14.8176    9.0821   10.2366 C   0  0  0  0  0  0  0  0  0  0  0  0
   14.8252   10.4342   10.6125 C   0  0  0  0  0  0  0  0  0  0  0  0
   14.8068   10.8586   11.9510 C   0  0  0  0  0  0  0  0  0  0  0  0
   14.7839   12.1844   12.2850 N   0  0  0  0  0  0  0  0  0  0  0  0
   15.3935   15.0606   13.2185 C   0  0  0  0  0  0  0  0  0  0  0  0
   16.0570   14.7122   14.5201 C   0  0  0  0  0  0  0  0  0  0  0  0
  1  2  1  0
  2  3  1  0
  3  4  1  0
  4  5  2  0
  5  6  1  0
  6  7  2  0
  7  8  1  0
  8  9  1  0
  8 10  2  0
 10 11  1  0
 11 12  2  0
 12 13  1  0
 13 14  2  0
  3 15  1  0
 15 16  1  0
 16  3  1  0
 14  4  1  0
 13  7  1  0
M  END
>  <original ID>  (252) 
UIXWQVOBYGMCMD-UHFFFAOYSA-N

>  <generation_date>  (252) 
None

>  <alias>  (252) 
None

>  <original SMILES>  (252) 
OCC1(c2cnc3c(F)cccc3n2)CC1

>  <HIPPO ID>  (252) 
64884

>  <tags>  (252) 
[]

>  <ref_pdb>  (252) 
c0300a

>  <method>  (252) 
None

>  <ref_url>  (252) 
None

>  <inchikey>  (252) 
UIXWQVOBYGMCMD-UHFFFAOYSA-N

>  <submitter_email>  (252) 
None

>  <ref_mols>  (252) 
c0839a,c1299a

>  <submitter_name>  (252) 
None

$$$$
OIGNPJHHJDIECG-UHFFFAOYSA-N
     RDKit          3D

 16 18  0  0  0  0  0  0  0  0999 V2000
   14.9112   15.9655   13.1930 O   0  0  0  0  0  0  0  0  0  0  0  0
   14.8615   14.6101   12.7407 C   0  0  0  0  0  0  0  0  0  0  0  0
   14.8214   13.6223   13.8575 C   0  0  0  0  0  0  0  0  0  0  0  0
   14.7540   12.1561   13.3990 C   0  0  0  0  0  0  0  0  0  0  0  0
   14.7354   11.1326   14.3305 C   0  0  0  0  0  0  0  0  0  0  0  0
   14.7640    9.8248   14.0265 N   0  0  0  0  0  0  0  0  0  0  0  0
   14.8192    9.4944   12.7260 C   0  0  0  0  0  0  0  0  0  0  0  0
   14.8157    8.1484   12.3371 C   0  0  0  0  0  0  0  0  0  0  0  0
   14.8689    6.7944   13.6681 Br  0  0  0  0  0  0  0  0  0  0  0  0
   14.7973    7.7659   10.9943 C   0  0  0  0  0  0  0  0  0  0  0  0
   14.8334    8.7493   10.0157 C   0  0  0  0  0  0  0  0  0  0  0  0
   14.8734   10.0958   10.3921 C   0  0  0  0  0  0  0  0  0  0  0  0
   14.8421   10.4983   11.7326 C   0  0  0  0  0  0  0  0  0  0  0  0
   14.8256   11.8156   12.0732 N   0  0  0  0  0  0  0  0  0  0  0  0
   14.1849   14.0306   15.1793 C   0  0  0  0  0  0  0  0  0  0  0  0
   15.6801   13.9690   15.0669 C   0  0  0  0  0  0  0  0  0  0  0  0
  1  2  1  0
  2  3  1  0
  3  4  1  0
  4  5  2  0
  5  6  1  0
  6  7  2  0
  7  8  1  0
  8  9  1  0
  8 10  2  0
 10 11  1  0
 11 12  2  0
 12 13  1  0
 13 14  2  0
  3 15  1  0
 15 16  1  0
 16  3  1  0
 14  4  1  0
 13  7  1  0
M  END
>  <original ID>  (253) 
OIGNPJHHJDIECG-UHFFFAOYSA-N

>  <generation_date>  (253) 
None

>  <alias>  (253) 
None

>  <original SMILES>  (253) 
OCC1(c2cnc3c(Br)cccc3n2)CC1

>  <HIPPO ID>  (253) 
64894

>  <tags>  (253) 
[]

>  <ref_pdb>  (253) 
c0300a

>  <method>  (253) 
None

>  <ref_url>  (253) 
None

>  <inchikey>  (253) 
OIGNPJHHJDIECG-UHFFFAOYSA-N

>  <submitter_email>  (253) 
None

>  <ref_mols>  (253) 
c0839a,c1299a

>  <submitter_name>  (253) 
None

$$$$
KHXUQHJRVLQOAN-UHFFFAOYSA-N
     RDKit          3D

 16 18  0  0  0  0  0  0  0  0999 V2000
   13.7840   13.2407   11.7163 C   0  0  0  0  0  0  0  0  0  0  0  0
   14.5158   12.0097   12.0489 C   0  0  0  0  0  0  0  0  0  0  0  0
   14.6439   11.1697   10.9886 N   0  0  0  0  0  0  0  0  0  0  0  0
   14.8199    9.8811   11.2733 C   0  0  0  0  0  0  0  0  0  0  0  0
   14.7626    8.9425   10.2493 C   0  0  0  0  0  0  0  0  0  0  0  0
   14.7398    7.5816   10.5435 C   0  0  0  0  0  0  0  0  0  0  0  0
   14.8494    7.1571   11.8635 C   0  0  0  0  0  0  0  0  0  0  0  0
   14.9591    8.0992   12.8897 C   0  0  0  0  0  0  0  0  0  0  0  0
   14.9333    9.4624   12.6188 C   0  0  0  0  0  0  0  0  0  0  0  0
   15.0061   10.3519   13.6311 N   0  0  0  0  0  0  0  0  0  0  0  0
   14.8323   11.6768   13.3720 C   0  0  0  0  0  0  0  0  0  0  0  0
   15.1253   12.6812   14.5461 C   0  0  0  0  0  0  0  0  0  0  0  0
   14.8847   14.1710   14.3426 C   0  0  0  0  0  0  0  0  0  0  0  0
   15.4632   14.9776   15.3686 O   0  0  0  0  0  0  0  0  0  0  0  0
   16.3145   12.3155   15.4349 C   0  0  0  0  0  0  0  0  0  0  0  0
   14.9227   12.1555   15.9583 C   0  0  0  0  0  0  0  0  0  0  0  0
  1  2  1  0
  2  3  2  0
  3  4  1  0
  4  5  2  0
  5  6  1  0
  6  7  2  0
  7  8  1  0
  8  9  2  0
  9 10  1  0
 10 11  2  0
 11 12  1  0
 12 13  1  0
 13 14  1  0
 12 15  1  0
 15 16  1  0
 11  2  1  0
 16 12  1  0
  9  4  1  0
M  END
>  <original ID>  (254) 
KHXUQHJRVLQOAN-UHFFFAOYSA-N

>  <generation_date>  (254) 
None

>  <alias>  (254) 
None

>  <original SMILES>  (254) 
Cc1nc2ccccc2nc1C1(CO)CC1

>  <HIPPO ID>  (254) 
64916

>  <tags>  (254) 
[]

>  <ref_pdb>  (254) 
c0300a

>  <method>  (254) 
None

>  <ref_url>  (254) 
None

>  <inchikey>  (254) 
KHXUQHJRVLQOAN-UHFFFAOYSA-N

>  <submitter_email>  (254) 
None

>  <ref_mols>  (254) 
c0839a,c1299a

>  <submitter_name>  (254) 
None

$$$$
UUEBHTHWLMOVGK-UHFFFAOYSA-N
     RDKit          3D

 16 18  0  0  0  0  0  0  0  0999 V2000
   13.9834   12.6111   10.0862 O   0  0  0  0  0  0  0  0  0  0  0  0
   13.0175   13.2424   10.9144 C   0  0  0  0  0  0  0  0  0  0  0  0
   13.2382   12.9888   12.3865 C   0  0  0  0  0  0  0  0  0  0  0  0
   14.5421   13.2234   13.0592 C   0  0  0  0  0  0  0  0  0  0  0  0
   15.1333   11.8364   13.1415 C   0  0  0  0  0  0  0  0  0  0  0  0
   15.0654   11.0388   14.2682 C   0  0  0  0  0  0  0  0  0  0  0  0
   14.9903    9.6881   14.2018 N   0  0  0  0  0  0  0  0  0  0  0  0
   14.9321    9.1332   12.9726 C   0  0  0  0  0  0  0  0  0  0  0  0
   14.7593    7.7618   12.8237 C   0  0  0  0  0  0  0  0  0  0  0  0
   14.6402    7.1732   11.5598 C   0  0  0  0  0  0  0  0  0  0  0  0
   14.7041    7.9624   10.4177 C   0  0  0  0  0  0  0  0  0  0  0  0
   14.9197    9.3313   10.5454 C   0  0  0  0  0  0  0  0  0  0  0  0
   15.0351    9.9224   11.8076 C   0  0  0  0  0  0  0  0  0  0  0  0
   15.2535   11.2445   11.9106 N   0  0  0  0  0  0  0  0  0  0  0  0
   15.0858   14.6247   13.0083 C   0  0  0  0  0  0  0  0  0  0  0  0
   14.6279   14.0854   14.3166 C   0  0  0  0  0  0  0  0  0  0  0  0
  1  2  1  0
  2  3  1  0
  3  4  1  0
  4  5  1  0
  5  6  2  0
  6  7  1  0
  7  8  2  0
  8  9  1  0
  9 10  2  0
 10 11  1  0
 11 12  2  0
 12 13  1  0
 13 14  2  0
  4 15  1  0
 15 16  1  0
 16  4  1  0
 14  5  1  0
 13  8  1  0
M  END
>  <original ID>  (255) 
UUEBHTHWLMOVGK-UHFFFAOYSA-N

>  <generation_date>  (255) 
None

>  <alias>  (255) 
None

>  <original SMILES>  (255) 
OCCC1(c2cnc3ccccc3n2)CC1

>  <HIPPO ID>  (255) 
64953

>  <tags>  (255) 
[]

>  <ref_pdb>  (255) 
c0300a

>  <method>  (255) 
None

>  <ref_url>  (255) 
None

>  <inchikey>  (255) 
UUEBHTHWLMOVGK-UHFFFAOYSA-N

>  <submitter_email>  (255) 
None

>  <ref_mols>  (255) 
c0839a,c1299a

>  <submitter_name>  (255) 
None

$$$$
OIPADNMLIAVUBA-UHFFFAOYSA-N
     RDKit          3D

 16 18  0  0  0  0  0  0  0  0999 V2000
   16.4088   13.8029   15.0001 C   0  0  0  0  0  0  0  0  0  0  0  0
   15.1584   13.7821   14.1007 C   0  0  0  0  0  0  0  0  0  0  0  0
   14.8250   12.2727   13.6657 C   0  0  0  0  0  0  0  0  0  0  0  0
   14.6989   11.2364   14.5715 C   0  0  0  0  0  0  0  0  0  0  0  0
   14.6672    9.9292   14.2293 N   0  0  0  0  0  0  0  0  0  0  0  0
   14.7686    9.6360   12.9234 C   0  0  0  0  0  0  0  0  0  0  0  0
   14.7517    8.2967   12.5232 C   0  0  0  0  0  0  0  0  0  0  0  0
   14.7726    7.9333   11.1723 C   0  0  0  0  0  0  0  0  0  0  0  0
   14.8484    8.9265   10.2049 C   0  0  0  0  0  0  0  0  0  0  0  0
   14.8914   10.2698   10.6031 C   0  0  0  0  0  0  0  0  0  0  0  0
   14.8446   10.6575   11.9507 C   0  0  0  0  0  0  0  0  0  0  0  0
   14.8897   11.9685   12.3269 N   0  0  0  0  0  0  0  0  0  0  0  0
   14.1310   14.6898   14.8569 C   0  0  0  0  0  0  0  0  0  0  0  0
   14.4511   15.7892   13.7932 C   0  0  0  0  0  0  0  0  0  0  0  0
   14.2027   16.9617   13.6060 O   0  0  0  0  0  0  0  0  0  0  0  0
   15.1872   14.8020   12.9294 C   0  0  0  0  0  0  0  0  0  0  0  0
  1  2  1  0
  2  3  1  0
  3  4  2  0
  4  5  1  0
  5  6  2  0
  6  7  1  0
  7  8  2  0
  8  9  1  0
  9 10  2  0
 10 11  1  0
 11 12  2  0
  2 13  1  0
 13 14  1  0
 14 15  2  0
 14 16  1  0
 16  2  1  0
 12  3  1  0
 11  6  1  0
M  END
>  <original ID>  (256) 
OIPADNMLIAVUBA-UHFFFAOYSA-N

>  <generation_date>  (256) 
None

>  <alias>  (256) 
None

>  <original SMILES>  (256) 
CC1(c2cnc3ccccc3n2)CC(=O)C1

>  <HIPPO ID>  (256) 
64958

>  <tags>  (256) 
[]

>  <ref_pdb>  (256) 
c0300a

>  <method>  (256) 
None

>  <ref_url>  (256) 
None

>  <inchikey>  (256) 
OIPADNMLIAVUBA-UHFFFAOYSA-N

>  <submitter_email>  (256) 
None

>  <ref_mols>  (256) 
c0839a,c1299a

>  <submitter_name>  (256) 
None

$$$$
WJIZVLLGZHVPLL-UHFFFAOYSA-N
     RDKit          3D

 17 19  0  0  0  0  0  0  0  0999 V2000
   17.0406    9.6935   15.0775 O   0  0  0  0  0  0  0  0  0  0  0  0
   16.7560    8.4547   15.6935 C   0  0  0  0  0  0  0  0  0  0  0  0
   16.2317    7.3925   14.7232 C   0  0  0  0  0  0  0  0  0  0  0  0
   14.8467    7.6495   14.1367 C   0  0  0  0  0  0  0  0  0  0  0  0
   14.8184    8.4244   12.8048 C   0  0  0  0  0  0  0  0  0  0  0  0
   14.8367    7.7381   11.5692 C   0  0  0  0  0  0  0  0  0  0  0  0
   14.8541    8.4285   10.3569 C   0  0  0  0  0  0  0  0  0  0  0  0
   14.8781    9.8227   10.3587 C   0  0  0  0  0  0  0  0  0  0  0  0
   14.8149   10.5434   11.5513 C   0  0  0  0  0  0  0  0  0  0  0  0
   14.7814   11.8941   11.5298 N   0  0  0  0  0  0  0  0  0  0  0  0
   14.6066   12.5191   12.7207 C   0  0  0  0  0  0  0  0  0  0  0  0
   14.9353   14.3625   12.8983 Br  0  0  0  0  0  0  0  0  0  0  0  0
   14.5087   11.8244   13.9019 C   0  0  0  0  0  0  0  0  0  0  0  0
   14.6197   10.4836   13.9553 N   0  0  0  0  0  0  0  0  0  0  0  0
   14.7651    9.8295   12.7833 C   0  0  0  0  0  0  0  0  0  0  0  0
   13.8081    6.5419   14.2996 C   0  0  0  0  0  0  0  0  0  0  0  0
   13.6879    7.7885   15.1108 C   0  0  0  0  0  0  0  0  0  0  0  0
  1  2  1  0
  2  3  1  0
  3  4  1  0
  4  5  1  0
  5  6  2  0
  6  7  1  0
  7  8  2  0
  8  9  1  0
  9 10  2  0
 10 11  1  0
 11 12  1  0
 11 13  2  0
 13 14  1  0
 14 15  2  0
  4 16  1  0
 16 17  1  0
 17  4  1  0
 15  5  1  0
 15  9  1  0
M  END
>  <original ID>  (257) 
WJIZVLLGZHVPLL-UHFFFAOYSA-N

>  <generation_date>  (257) 
None

>  <alias>  (257) 
None

>  <original SMILES>  (257) 
OCCC1(c2cccc3nc(Br)cnc23)CC1

>  <HIPPO ID>  (257) 
65050

>  <tags>  (257) 
[]

>  <ref_pdb>  (257) 
c0300a

>  <method>  (257) 
None

>  <ref_url>  (257) 
None

>  <inchikey>  (257) 
WJIZVLLGZHVPLL-UHFFFAOYSA-N

>  <submitter_email>  (257) 
None

>  <ref_mols>  (257) 
c0839a,c1299a

>  <submitter_name>  (257) 
None

$$$$
JWKMHNWQJANUDP-UHFFFAOYSA-N
     RDKit          3D

 17 19  0  0  0  0  0  0  0  0999 V2000
   17.0738   14.8525   14.0319 O   0  0  0  0  0  0  0  0  0  0  0  0
   16.5052   13.9490   14.9802 C   0  0  0  0  0  0  0  0  0  0  0  0
   15.0298   13.6659   14.6922 C   0  0  0  0  0  0  0  0  0  0  0  0
   14.7784   12.9641   13.3709 C   0  0  0  0  0  0  0  0  0  0  0  0
   15.0353   11.4994   13.2009 C   0  0  0  0  0  0  0  0  0  0  0  0
   15.0385   10.6128   14.2499 C   0  0  0  0  0  0  0  0  0  0  0  0
   14.9814    9.2889   14.0631 N   0  0  0  0  0  0  0  0  0  0  0  0
   14.9005    8.8413   12.7899 C   0  0  0  0  0  0  0  0  0  0  0  0
   14.7899    7.4853   12.5105 C   0  0  0  0  0  0  0  0  0  0  0  0
   14.8487    6.2473   13.9415 Br  0  0  0  0  0  0  0  0  0  0  0  0
   14.6383    7.0123   11.2074 C   0  0  0  0  0  0  0  0  0  0  0  0
   14.6312    7.9132   10.1498 C   0  0  0  0  0  0  0  0  0  0  0  0
   14.8141    9.2675   10.3932 C   0  0  0  0  0  0  0  0  0  0  0  0
   14.9254    9.7356   11.6983 C   0  0  0  0  0  0  0  0  0  0  0  0
   15.0487   11.0444   11.9101 N   0  0  0  0  0  0  0  0  0  0  0  0
   14.7576   13.9385   12.2577 C   0  0  0  0  0  0  0  0  0  0  0  0
   13.5070   13.2127   12.5793 C   0  0  0  0  0  0  0  0  0  0  0  0
  1  2  1  0
  2  3  1  0
  3  4  1  0
  4  5  1  0
  5  6  2  0
  6  7  1  0
  7  8  2  0
  8  9  1  0
  9 10  1  0
  9 11  2  0
 11 12  1  0
 12 13  2  0
 13 14  1  0
 14 15  2  0
  4 16  1  0
 16 17  1  0
 17  4  1  0
 15  5  1  0
 14  8  1  0
M  END
>  <original ID>  (258) 
JWKMHNWQJANUDP-UHFFFAOYSA-N

>  <generation_date>  (258) 
None

>  <alias>  (258) 
None

>  <original SMILES>  (258) 
OCCC1(c2cnc3c(Br)cccc3n2)CC1

>  <HIPPO ID>  (258) 
65051

>  <tags>  (258) 
[]

>  <ref_pdb>  (258) 
c0300a

>  <method>  (258) 
None

>  <ref_url>  (258) 
None

>  <inchikey>  (258) 
JWKMHNWQJANUDP-UHFFFAOYSA-N

>  <submitter_email>  (258) 
None

>  <ref_mols>  (258) 
c0839a,c1299a

>  <submitter_name>  (258) 
None

$$$$
CQRAYJXNGUIGQK-UHFFFAOYSA-N
     RDKit          3D

 17 19  0  0  0  0  0  0  0  0999 V2000
   13.8150   14.4499   15.1276 C   0  0  0  0  0  0  0  0  0  0  0  0
   14.8861   14.1687   14.0891 C   0  0  0  0  0  0  0  0  0  0  0  0
   14.8461   12.6099   13.6576 C   0  0  0  0  0  0  0  0  0  0  0  0
   14.8860   11.5935   14.5946 C   0  0  0  0  0  0  0  0  0  0  0  0
   14.8649   10.2807   14.2929 N   0  0  0  0  0  0  0  0  0  0  0  0
   14.8376    9.9310   12.9926 C   0  0  0  0  0  0  0  0  0  0  0  0
   14.8344    8.5777   12.6031 C   0  0  0  0  0  0  0  0  0  0  0  0
   14.9229    7.2176   13.9284 Br  0  0  0  0  0  0  0  0  0  0  0  0
   14.7956    8.1821   11.2592 C   0  0  0  0  0  0  0  0  0  0  0  0
   14.8103    9.1604   10.2763 C   0  0  0  0  0  0  0  0  0  0  0  0
   14.8192   10.5104   10.6597 C   0  0  0  0  0  0  0  0  0  0  0  0
   14.8094   10.9309   11.9977 C   0  0  0  0  0  0  0  0  0  0  0  0
   14.8132   12.2629   12.3308 N   0  0  0  0  0  0  0  0  0  0  0  0
   14.8678   15.2537   12.9906 C   0  0  0  0  0  0  0  0  0  0  0  0
   16.3594   15.4549   13.2488 C   0  0  0  0  0  0  0  0  0  0  0  0
   17.3078   15.8332   12.5976 O   0  0  0  0  0  0  0  0  0  0  0  0
   16.2304   14.7826   14.6293 C   0  0  0  0  0  0  0  0  0  0  0  0
  1  2  1  0
  2  3  1  0
  3  4  2  0
  4  5  1  0
  5  6  2  0
  6  7  1  0
  7  8  1  0
  7  9  2  0
  9 10  1  0
 10 11  2  0
 11 12  1  0
 12 13  2  0
  2 14  1  0
 14 15  1  0
 15 16  2  0
 15 17  1  0
 17  2  1  0
 13  3  1  0
 12  6  1  0
M  END
>  <original ID>  (259) 
CQRAYJXNGUIGQK-UHFFFAOYSA-N

>  <generation_date>  (259) 
None

>  <alias>  (259) 
None

>  <original SMILES>  (259) 
CC1(c2cnc3c(Br)cccc3n2)CC(=O)C1

>  <HIPPO ID>  (259) 
65076

>  <tags>  (259) 
[]

>  <ref_pdb>  (259) 
c0300a

>  <method>  (259) 
None

>  <ref_url>  (259) 
None

>  <inchikey>  (259) 
CQRAYJXNGUIGQK-UHFFFAOYSA-N

>  <submitter_email>  (259) 
None

>  <ref_mols>  (259) 
c0839a,c1299a

>  <submitter_name>  (259) 
None

$$$$
VFYLAIQMSIQVGK-UHFFFAOYSA-N
     RDKit          3D

 17 19  0  0  0  0  0  0  0  0999 V2000
   13.5937    7.4143   14.6748 C   0  0  0  0  0  0  0  0  0  0  0  0
   14.9953    7.6866   14.1154 C   0  0  0  0  0  0  0  0  0  0  0  0
   14.8624    8.4582   12.7035 C   0  0  0  0  0  0  0  0  0  0  0  0
   14.8357    7.7815   11.4626 C   0  0  0  0  0  0  0  0  0  0  0  0
   14.8361    8.4807   10.2550 C   0  0  0  0  0  0  0  0  0  0  0  0
   14.8688    9.8752   10.2608 C   0  0  0  0  0  0  0  0  0  0  0  0
   14.8098   10.5905   11.4558 C   0  0  0  0  0  0  0  0  0  0  0  0
   14.7743   11.9422   11.4609 N   0  0  0  0  0  0  0  0  0  0  0  0
   14.5969   12.5423   12.6660 C   0  0  0  0  0  0  0  0  0  0  0  0
   14.9413   14.3780   12.8951 Br  0  0  0  0  0  0  0  0  0  0  0  0
   14.4899   11.8224   13.8311 C   0  0  0  0  0  0  0  0  0  0  0  0
   14.5959   10.4842   13.8513 N   0  0  0  0  0  0  0  0  0  0  0  0
   14.7705    9.8605   12.6756 C   0  0  0  0  0  0  0  0  0  0  0  0
   15.9309    8.3635   15.1962 C   0  0  0  0  0  0  0  0  0  0  0  0
   16.5975    7.0112   15.3850 C   0  0  0  0  0  0  0  0  0  0  0  0
   17.3770    6.5836   16.2083 O   0  0  0  0  0  0  0  0  0  0  0  0
   15.9127    6.4124   14.1490 C   0  0  0  0  0  0  0  0  0  0  0  0
  1  2  1  0
  2  3  1  0
  3  4  2  0
  4  5  1  0
  5  6  2  0
  6  7  1  0
  7  8  2  0
  8  9  1  0
  9 10  1  0
  9 11  2  0
 11 12  1  0
 12 13  2  0
  2 14  1  0
 14 15  1  0
 15 16  2  0
 15 17  1  0
 17  2  1  0
 13  3  1  0
 13  7  1  0
M  END
>  <original ID>  (260) 
VFYLAIQMSIQVGK-UHFFFAOYSA-N

>  <generation_date>  (260) 
None

>  <alias>  (260) 
None

>  <original SMILES>  (260) 
CC1(c2cccc3nc(Br)cnc23)CC(=O)C1

>  <HIPPO ID>  (260) 
65114

>  <tags>  (260) 
[]

>  <ref_pdb>  (260) 
c0300a

>  <method>  (260) 
None

>  <ref_url>  (260) 
None

>  <inchikey>  (260) 
VFYLAIQMSIQVGK-UHFFFAOYSA-N

>  <submitter_email>  (260) 
None

>  <ref_mols>  (260) 
c0839a,c1299a

>  <submitter_name>  (260) 
None

$$$$
QPXBNSAIQIHGBE-UHFFFAOYSA-N
     RDKit          3D

 17 19  0  0  0  0  0  0  0  0999 V2000
   14.3206   16.3274   13.0713 O   0  0  0  0  0  0  0  0  0  0  0  0
   15.0136   15.3922   13.8826 C   0  0  0  0  0  0  0  0  0  0  0  0
   14.4364   13.9545   14.0316 C   0  0  0  0  0  0  0  0  0  0  0  0
   14.4047   12.9892   12.8496 C   0  0  0  0  0  0  0  0  0  0  0  0
   14.5897   11.4998   13.0404 C   0  0  0  0  0  0  0  0  0  0  0  0
   14.6698   10.8197   14.2264 C   0  0  0  0  0  0  0  0  0  0  0  0
   14.8130    9.4789   14.2712 N   0  0  0  0  0  0  0  0  0  0  0  0
   14.8627    8.8113   13.0857 C   0  0  0  0  0  0  0  0  0  0  0  0
   14.9163    7.4303   13.0101 C   0  0  0  0  0  0  0  0  0  0  0  0
   15.0063    6.7328   14.1471 F   0  0  0  0  0  0  0  0  0  0  0  0
   14.8416    6.7325   11.8021 C   0  0  0  0  0  0  0  0  0  0  0  0
   14.7379    7.4324   10.6088 C   0  0  0  0  0  0  0  0  0  0  0  0
   14.7689    8.8178   10.6405 C   0  0  0  0  0  0  0  0  0  0  0  0
   14.8099    9.4893   11.8629 C   0  0  0  0  0  0  0  0  0  0  0  0
   14.7189   10.8065   11.8634 N   0  0  0  0  0  0  0  0  0  0  0  0
   15.0948   13.4172   11.6117 C   0  0  0  0  0  0  0  0  0  0  0  0
   13.6162   13.3299   11.5999 C   0  0  0  0  0  0  0  0  0  0  0  0
  1  2  1  0
  2  3  1  0
  3  4  1  0
  4  5  1  0
  5  6  2  0
  6  7  1  0
  7  8  2  0
  8  9  1  0
  9 10  1  0
  9 11  2  0
 11 12  1  0
 12 13  2  0
 13 14  1  0
 14 15  2  0
  4 16  1  0
 16 17  1  0
 17  4  1  0
 15  5  1  0
 14  8  1  0
M  END
>  <original ID>  (261) 
QPXBNSAIQIHGBE-UHFFFAOYSA-N

>  <generation_date>  (261) 
None

>  <alias>  (261) 
None

>  <original SMILES>  (261) 
OCCC1(c2cnc3c(F)cccc3n2)CC1

>  <HIPPO ID>  (261) 
65157

>  <tags>  (261) 
[]

>  <ref_pdb>  (261) 
c0300a

>  <method>  (261) 
None

>  <ref_url>  (261) 
None

>  <inchikey>  (261) 
QPXBNSAIQIHGBE-UHFFFAOYSA-N

>  <submitter_email>  (261) 
None

>  <ref_mols>  (261) 
c0839a,c1299a

>  <submitter_name>  (261) 
None

$$$$
YPWASUCVYXCWDN-UHFFFAOYSA-N
     RDKit          3D

 17 19  0  0  0  0  0  0  0  0999 V2000
   15.2248   14.0812   12.7052 C   0  0  0  0  0  0  0  0  0  0  0  0
   14.6156   12.7491   12.2849 C   0  0  0  0  0  0  0  0  0  0  0  0
   15.1232   11.3557   12.7670 C   0  0  0  0  0  0  0  0  0  0  0  0
   15.1737   10.8368   14.0370 C   0  0  0  0  0  0  0  0  0  0  0  0
   15.0994    9.5064   14.2364 N   0  0  0  0  0  0  0  0  0  0  0  0
   14.9496    8.7043   13.1394 C   0  0  0  0  0  0  0  0  0  0  0  0
   14.8099    7.3301   13.2125 C   0  0  0  0  0  0  0  0  0  0  0  0
   14.8479    6.7524   14.4168 F   0  0  0  0  0  0  0  0  0  0  0  0
   14.6235    6.5186   12.0870 C   0  0  0  0  0  0  0  0  0  0  0  0
   14.5814    7.0848   10.8212 C   0  0  0  0  0  0  0  0  0  0  0  0
   14.7619    8.4523   10.7054 C   0  0  0  0  0  0  0  0  0  0  0  0
   14.9366    9.2347   11.8472 C   0  0  0  0  0  0  0  0  0  0  0  0
   15.1258   10.5299   11.6918 N   0  0  0  0  0  0  0  0  0  0  0  0
   13.2021   12.8901   12.7540 C   0  0  0  0  0  0  0  0  0  0  0  0
   12.8859   13.2568   11.1568 C   0  0  0  0  0  0  0  0  0  0  0  0
   12.1059   13.7575   10.3811 O   0  0  0  0  0  0  0  0  0  0  0  0
   14.1548   12.6205   10.7994 C   0  0  0  0  0  0  0  0  0  0  0  0
  1  2  1  0
  2  3  1  0
  3  4  2  0
  4  5  1  0
  5  6  2  0
  6  7  1  0
  7  8  1  0
  7  9  2  0
  9 10  1  0
 10 11  2  0
 11 12  1  0
 12 13  2  0
  2 14  1  0
 14 15  1  0
 15 16  2  0
 15 17  1  0
 17  2  1  0
 13  3  1  0
 12  6  1  0
M  END
>  <original ID>  (262) 
YPWASUCVYXCWDN-UHFFFAOYSA-N

>  <generation_date>  (262) 
None

>  <alias>  (262) 
None

>  <original SMILES>  (262) 
CC1(c2cnc3c(F)cccc3n2)CC(=O)C1

>  <HIPPO ID>  (262) 
65162

>  <tags>  (262) 
[]

>  <ref_pdb>  (262) 
c0300a

>  <method>  (262) 
None

>  <ref_url>  (262) 
None

>  <inchikey>  (262) 
YPWASUCVYXCWDN-UHFFFAOYSA-N

>  <submitter_email>  (262) 
None

>  <ref_mols>  (262) 
c0839a,c1299a

>  <submitter_name>  (262) 
None

$$$$
HRCACOGSAJOGSI-UHFFFAOYSA-N
     RDKit          3D

 17 19  0  0  0  0  0  0  0  0999 V2000
   14.1807   13.2773   11.8167 C   0  0  0  0  0  0  0  0  0  0  0  0
   14.6007   11.9359   12.2299 C   0  0  0  0  0  0  0  0  0  0  0  0
   14.6725   11.0801   11.1760 N   0  0  0  0  0  0  0  0  0  0  0  0
   14.8146    9.7904   11.4514 C   0  0  0  0  0  0  0  0  0  0  0  0
   14.7621    8.8653   10.4129 C   0  0  0  0  0  0  0  0  0  0  0  0
   14.7486    7.5022   10.6884 C   0  0  0  0  0  0  0  0  0  0  0  0
   14.8560    7.0683   12.0056 C   0  0  0  0  0  0  0  0  0  0  0  0
   14.9496    8.0012   13.0447 C   0  0  0  0  0  0  0  0  0  0  0  0
   14.9147    9.3673   12.7938 C   0  0  0  0  0  0  0  0  0  0  0  0
   14.9724   10.2541   13.8154 N   0  0  0  0  0  0  0  0  0  0  0  0
   14.8727   11.5896   13.5567 C   0  0  0  0  0  0  0  0  0  0  0  0
   15.2855   12.5676   14.7291 C   0  0  0  0  0  0  0  0  0  0  0  0
   14.9274   14.0555   14.7289 C   0  0  0  0  0  0  0  0  0  0  0  0
   13.5227   14.2938   15.2313 C   0  0  0  0  0  0  0  0  0  0  0  0
   13.1830   15.6708   15.1814 O   0  0  0  0  0  0  0  0  0  0  0  0
   16.6583   12.2653   15.3343 C   0  0  0  0  0  0  0  0  0  0  0  0
   15.4281   11.9532   16.1210 C   0  0  0  0  0  0  0  0  0  0  0  0
  1  2  1  0
  2  3  2  0
  3  4  1  0
  4  5  2  0
  5  6  1  0
  6  7  2  0
  7  8  1  0
  8  9  2  0
  9 10  1  0
 10 11  2  0
 11 12  1  0
 12 13  1  0
 13 14  1  0
 14 15  1  0
 12 16  1  0
 16 17  1  0
 11  2  1  0
 17 12  1  0
  9  4  1  0
M  END
>  <original ID>  (263) 
HRCACOGSAJOGSI-UHFFFAOYSA-N

>  <generation_date>  (263) 
None

>  <alias>  (263) 
None

>  <original SMILES>  (263) 
Cc1nc2ccccc2nc1C1(CCO)CC1

>  <HIPPO ID>  (263) 
65255

>  <tags>  (263) 
[]

>  <ref_pdb>  (263) 
c0300a

>  <method>  (263) 
None

>  <ref_url>  (263) 
None

>  <inchikey>  (263) 
HRCACOGSAJOGSI-UHFFFAOYSA-N

>  <submitter_email>  (263) 
None

>  <ref_mols>  (263) 
c0839a,c1299a

>  <submitter_name>  (263) 
None

$$$$
GASYNYREHWKXDK-UHFFFAOYSA-N
     RDKit          3D

 17 19  0  0  0  0  0  0  0  0999 V2000
   13.5453   13.2808   11.3314 C   0  0  0  0  0  0  0  0  0  0  0  0
   14.4207   12.2327   11.8601 C   0  0  0  0  0  0  0  0  0  0  0  0
   14.5987   11.2168   10.9833 N   0  0  0  0  0  0  0  0  0  0  0  0
   14.8323   10.0206   11.5024 C   0  0  0  0  0  0  0  0  0  0  0  0
   14.7998    8.9144   10.6536 C   0  0  0  0  0  0  0  0  0  0  0  0
   14.8445    7.6252   11.1750 C   0  0  0  0  0  0  0  0  0  0  0  0
   14.9752    7.4569   12.5513 C   0  0  0  0  0  0  0  0  0  0  0  0
   15.0590    8.5767   13.3971 C   0  0  0  0  0  0  0  0  0  0  0  0
   14.9809    9.8765   12.9014 C   0  0  0  0  0  0  0  0  0  0  0  0
   15.0285   10.9637   13.7277 N   0  0  0  0  0  0  0  0  0  0  0  0
   14.7653   12.1917   13.2088 C   0  0  0  0  0  0  0  0  0  0  0  0
   14.9915   13.4694   14.2284 C   0  0  0  0  0  0  0  0  0  0  0  0
   15.4840   14.7651   13.5463 C   0  0  0  0  0  0  0  0  0  0  0  0
   15.7599   13.1229   15.5741 C   0  0  0  0  0  0  0  0  0  0  0  0
   14.3923   13.2364   16.2712 C   0  0  0  0  0  0  0  0  0  0  0  0
   13.9479   12.9483   17.3613 O   0  0  0  0  0  0  0  0  0  0  0  0
   13.7834   13.9224   15.0674 C   0  0  0  0  0  0  0  0  0  0  0  0
  1  2  1  0
  2  3  2  0
  3  4  1  0
  4  5  2  0
  5  6  1  0
  6  7  2  0
  7  8  1  0
  8  9  2  0
  9 10  1  0
 10 11  2  0
 11 12  1  0
 12 13  1  0
 12 14  1  0
 14 15  1  0
 15 16  2  0
 15 17  1  0
 11  2  1  0
 17 12  1  0
  9  4  1  0
M  END
>  <original ID>  (264) 
GASYNYREHWKXDK-UHFFFAOYSA-N

>  <generation_date>  (264) 
None

>  <alias>  (264) 
None

>  <original SMILES>  (264) 
Cc1nc2ccccc2nc1C1(C)CC(=O)C1

>  <HIPPO ID>  (264) 
65260

>  <tags>  (264) 
[]

>  <ref_pdb>  (264) 
c0300a

>  <method>  (264) 
None

>  <ref_url>  (264) 
None

>  <inchikey>  (264) 
GASYNYREHWKXDK-UHFFFAOYSA-N

>  <submitter_email>  (264) 
None

>  <ref_mols>  (264) 
c0839a,c1299a

>  <submitter_name>  (264) 
None

$$$$
AFBIEYROZQHZJB-SHTZXODSSA-N
     RDKit          3D

 18 21  0  0  0  0  0  0  0  0999 V2000
   14.6084   19.1188   14.5817 F   0  0  0  0  0  0  0  0  0  0  0  0
   14.5855   17.8286   15.0116 C   0  0  0  0  0  0  0  0  0  0  0  0
   14.8583   16.9595   13.8192 C   0  0  0  0  0  0  0  0  0  0  0  0
   14.9051   15.5097   14.1418 C   0  0  2  0  0  0  0  0  0  0  0  0
   14.0334   14.3607   14.8109 C   0  0  0  0  0  0  0  0  0  0  0  0
   15.0836   13.5474   13.9925 C   0  0  2  0  0  0  0  0  0  0  0  0
   15.0176   12.0698   13.6594 C   0  0  0  0  0  0  0  0  0  0  0  0
   14.9625   11.0498   14.5814 C   0  0  0  0  0  0  0  0  0  0  0  0
   14.8705    9.7426   14.2472 N   0  0  0  0  0  0  0  0  0  0  0  0
   14.8548    9.4424   12.9366 C   0  0  0  0  0  0  0  0  0  0  0  0
   14.7761    8.1066   12.5391 C   0  0  0  0  0  0  0  0  0  0  0  0
   14.7390    7.7433   11.1884 C   0  0  0  0  0  0  0  0  0  0  0  0
   14.8018    8.7314   10.2138 C   0  0  0  0  0  0  0  0  0  0  0  0
   14.8881   10.0729   10.6030 C   0  0  0  0  0  0  0  0  0  0  0  0
   14.9047   10.4544   11.9527 C   0  0  0  0  0  0  0  0  0  0  0  0
   14.9893   11.7576   12.3196 N   0  0  0  0  0  0  0  0  0  0  0  0
   16.0929   14.5769   14.6603 C   0  0  0  0  0  0  0  0  0  0  0  0
   14.9591   14.6000   12.8851 C   0  0  0  0  0  0  0  0  0  0  0  0
  1  2  1  0
  2  3  1  0
  4  3  1  6
  4  5  1  0
  5  6  1  0
  6  7  1  6
  7  8  2  0
  8  9  1  0
  9 10  2  0
 10 11  1  0
 11 12  2  0
 12 13  1  0
 13 14  2  0
 14 15  1  0
 15 16  2  0
  6 17  1  0
  6 18  1  0
 17  4  1  0
 18  4  1  0
 16  7  1  0
 15 10  1  0
M  END
>  <original ID>  (265) 
AFBIEYROZQHZJB-SHTZXODSSA-N

>  <generation_date>  (265) 
None

>  <alias>  (265) 
None

>  <original SMILES>  (265) 
FCC[C@]12C[C@](c3cnc4ccccc4n3)(C1)C2

>  <HIPPO ID>  (265) 
65792

>  <tags>  (265) 
[]

>  <ref_pdb>  (265) 
c0300a

>  <method>  (265) 
None

>  <ref_url>  (265) 
None

>  <inchikey>  (265) 
AFBIEYROZQHZJB-SHTZXODSSA-N

>  <submitter_email>  (265) 
None

>  <ref_mols>  (265) 
c0839a,c1299a

>  <submitter_name>  (265) 
None

$$$$
NSDJVSLABFNVIN-SHTZXODSSA-N
     RDKit          3D

 19 22  0  0  0  0  0  0  0  0999 V2000
   16.7619   19.3855   13.4999 F   0  0  0  0  0  0  0  0  0  0  0  0
   16.2489   18.1773   13.1612 C   0  0  0  0  0  0  0  0  0  0  0  0
   15.5208   17.5590   14.3502 C   0  0  0  0  0  0  0  0  0  0  0  0
   15.3985   16.0731   14.2806 C   0  0  1  0  0  0  0  0  0  0  0  0
   16.3727   14.8878   14.6779 C   0  0  0  0  0  0  0  0  0  0  0  0
   15.1126   14.1260   14.0234 C   0  0  1  0  0  0  0  0  0  0  0  0
   14.8922   12.6474   13.7047 C   0  0  0  0  0  0  0  0  0  0  0  0
   14.8392   11.6659   14.6673 C   0  0  0  0  0  0  0  0  0  0  0  0
   14.7872   10.3438   14.3927 N   0  0  0  0  0  0  0  0  0  0  0  0
   14.8070    9.9581   13.0972 C   0  0  0  0  0  0  0  0  0  0  0  0
   14.8161    8.5983   12.7287 C   0  0  0  0  0  0  0  0  0  0  0  0
   14.8914    7.2607   14.0760 Br  0  0  0  0  0  0  0  0  0  0  0  0
   14.7925    8.1764   11.3903 C   0  0  0  0  0  0  0  0  0  0  0  0
   14.8159    9.1338   10.3863 C   0  0  0  0  0  0  0  0  0  0  0  0
   14.8332   10.4898   10.7443 C   0  0  0  0  0  0  0  0  0  0  0  0
   14.8159   10.9300   12.0775 C   0  0  0  0  0  0  0  0  0  0  0  0
   14.8613   12.2619   12.3828 N   0  0  0  0  0  0  0  0  0  0  0  0
   14.3170   15.1226   14.9415 C   0  0  0  0  0  0  0  0  0  0  0  0
   15.1862   15.2395   12.9867 C   0  0  0  0  0  0  0  0  0  0  0  0
  1  2  1  0
  2  3  1  0
  4  3  1  6
  4  5  1  0
  5  6  1  0
  6  7  1  6
  7  8  2  0
  8  9  1  0
  9 10  2  0
 10 11  1  0
 11 12  1  0
 11 13  2  0
 13 14  1  0
 14 15  2  0
 15 16  1  0
 16 17  2  0
  6 18  1  0
  6 19  1  0
 18  4  1  0
 19  4  1  0
 17  7  1  0
 16 10  1  0
M  END
>  <original ID>  (266) 
NSDJVSLABFNVIN-SHTZXODSSA-N

>  <generation_date>  (266) 
None

>  <alias>  (266) 
None

>  <original SMILES>  (266) 
FCC[C@]12C[C@](c3cnc4c(Br)cccc4n3)(C1)C2

>  <HIPPO ID>  (266) 
65861

>  <tags>  (266) 
[]

>  <ref_pdb>  (266) 
c0300a

>  <method>  (266) 
None

>  <ref_url>  (266) 
None

>  <inchikey>  (266) 
NSDJVSLABFNVIN-SHTZXODSSA-N

>  <submitter_email>  (266) 
None

>  <ref_mols>  (266) 
c0839a,c1299a

>  <submitter_name>  (266) 
None

$$$$
ORAVTPBOJASVEI-SHTZXODSSA-N
     RDKit          3D

 19 22  0  0  0  0  0  0  0  0999 V2000
   14.3126    4.9819   17.0645 F   0  0  0  0  0  0  0  0  0  0  0  0
   14.6402    6.0183   17.8768 C   0  0  0  0  0  0  0  0  0  0  0  0
   15.7903    6.7695   17.2500 C   0  0  0  0  0  0  0  0  0  0  0  0
   15.4333    7.1819   15.8718 C   0  0  2  0  0  0  0  0  0  0  0  0
   16.2640    8.2091   15.0402 C   0  0  0  0  0  0  0  0  0  0  0  0
   15.0736    7.8636   14.0674 C   0  0  2  0  0  0  0  0  0  0  0  0
   14.8726    8.5213   12.7097 C   0  0  0  0  0  0  0  0  0  0  0  0
   14.8430    7.8193   11.4886 C   0  0  0  0  0  0  0  0  0  0  0  0
   14.8280    8.4975   10.2675 C   0  0  0  0  0  0  0  0  0  0  0  0
   14.8525    9.8944   10.2457 C   0  0  0  0  0  0  0  0  0  0  0  0
   14.7977   10.6346   11.4274 C   0  0  0  0  0  0  0  0  0  0  0  0
   14.7610   11.9898   11.4245 N   0  0  0  0  0  0  0  0  0  0  0  0
   14.5945   12.5981   12.6293 C   0  0  0  0  0  0  0  0  0  0  0  0
   14.9575   14.4285   12.8735 Br  0  0  0  0  0  0  0  0  0  0  0  0
   14.4961   11.8886   13.7993 C   0  0  0  0  0  0  0  0  0  0  0  0
   14.6104   10.5559   13.8240 N   0  0  0  0  0  0  0  0  0  0  0  0
   14.7708    9.9202   12.6536 C   0  0  0  0  0  0  0  0  0  0  0  0
   14.1754    7.9714   15.3454 C   0  0  0  0  0  0  0  0  0  0  0  0
   15.3216    6.3901   14.4973 C   0  0  0  0  0  0  0  0  0  0  0  0
  1  2  1  0
  2  3  1  0
  4  3  1  1
  4  5  1  0
  5  6  1  0
  6  7  1  6
  7  8  2  0
  8  9  1  0
  9 10  2  0
 10 11  1  0
 11 12  2  0
 12 13  1  0
 13 14  1  0
 13 15  2  0
 15 16  1  0
 16 17  2  0
  6 18  1  0
  6 19  1  0
 18  4  1  0
 19  4  1  0
 17  7  1  0
 17 11  1  0
M  END
>  <original ID>  (267) 
ORAVTPBOJASVEI-SHTZXODSSA-N

>  <generation_date>  (267) 
None

>  <alias>  (267) 
None

>  <original SMILES>  (267) 
FCC[C@]12C[C@](c3cccc4nc(Br)cnc43)(C1)C2

>  <HIPPO ID>  (267) 
65862

>  <tags>  (267) 
[]

>  <ref_pdb>  (267) 
c0300a

>  <method>  (267) 
None

>  <ref_url>  (267) 
None

>  <inchikey>  (267) 
ORAVTPBOJASVEI-SHTZXODSSA-N

>  <submitter_email>  (267) 
None

>  <ref_mols>  (267) 
c0839a,c1299a

>  <submitter_name>  (267) 
None

$$$$
BCYPPUBCHCFSIW-SHTZXODSSA-N
     RDKit          3D

 19 22  0  0  0  0  0  0  0  0999 V2000
   13.6677   17.7375   15.2757 F   0  0  0  0  0  0  0  0  0  0  0  0
   14.4506   18.0709   14.2175 C   0  0  0  0  0  0  0  0  0  0  0  0
   15.7217   17.2732   14.3588 C   0  0  0  0  0  0  0  0  0  0  0  0
   15.4067   15.8218   14.3509 C   0  0  1  0  0  0  0  0  0  0  0  0
   14.3210   14.8522   14.9738 C   0  0  0  0  0  0  0  0  0  0  0  0
   15.1178   13.9006   14.0107 C   0  0  1  0  0  0  0  0  0  0  0  0
   14.9023   12.4374   13.6546 C   0  0  0  0  0  0  0  0  0  0  0  0
   14.8364   11.4352   14.5971 C   0  0  0  0  0  0  0  0  0  0  0  0
   14.7832   10.1209   14.2939 N   0  0  0  0  0  0  0  0  0  0  0  0
   14.8129    9.7803   12.9891 C   0  0  0  0  0  0  0  0  0  0  0  0
   14.7990    8.4350   12.6005 C   0  0  0  0  0  0  0  0  0  0  0  0
   14.8028    7.4860   13.5477 F   0  0  0  0  0  0  0  0  0  0  0  0
   14.7823    8.0295   11.2630 C   0  0  0  0  0  0  0  0  0  0  0  0
   14.8240    8.9972   10.2708 C   0  0  0  0  0  0  0  0  0  0  0  0
   14.8609   10.3484   10.6451 C   0  0  0  0  0  0  0  0  0  0  0  0
   14.8437   10.7687   11.9864 C   0  0  0  0  0  0  0  0  0  0  0  0
   14.8938   12.0901   12.3221 N   0  0  0  0  0  0  0  0  0  0  0  0
   15.1827   15.0594   13.0210 C   0  0  0  0  0  0  0  0  0  0  0  0
   16.3652   14.6322   14.7094 C   0  0  0  0  0  0  0  0  0  0  0  0
  1  2  1  0
  2  3  1  0
  4  3  1  6
  4  5  1  0
  5  6  1  0
  6  7  1  6
  7  8  2  0
  8  9  1  0
  9 10  2  0
 10 11  1  0
 11 12  1  0
 11 13  2  0
 13 14  1  0
 14 15  2  0
 15 16  1  0
 16 17  2  0
  6 18  1  0
  6 19  1  0
 18  4  1  0
 19  4  1  0
 17  7  1  0
 16 10  1  0
M  END
>  <original ID>  (268) 
BCYPPUBCHCFSIW-SHTZXODSSA-N

>  <generation_date>  (268) 
None

>  <alias>  (268) 
None

>  <original SMILES>  (268) 
FCC[C@]12C[C@](c3cnc4c(F)cccc4n3)(C1)C2

>  <HIPPO ID>  (268) 
65973

>  <tags>  (268) 
[]

>  <ref_pdb>  (268) 
c0300a

>  <method>  (268) 
None

>  <ref_url>  (268) 
None

>  <inchikey>  (268) 
BCYPPUBCHCFSIW-SHTZXODSSA-N

>  <submitter_email>  (268) 
None

>  <ref_mols>  (268) 
c0839a,c1299a

>  <submitter_name>  (268) 
None

$$$$
HQSSEIFZGFOSAN-WXZYKRPKSA-N
     RDKit          3D

 20 24  0  0  0  0  0  0  0  0999 V2000
   14.7767    8.0285   11.1114 C   0  0  0  0  0  0  0  0  0  0  0  0
   14.8446    9.0245   10.1479 C   0  0  0  0  0  0  0  0  0  0  0  0
   14.8808   10.3681   10.5501 C   0  0  0  0  0  0  0  0  0  0  0  0
   14.8402   10.7616   11.8952 C   0  0  0  0  0  0  0  0  0  0  0  0
   14.8779   12.0782   12.2742 N   0  0  0  0  0  0  0  0  0  0  0  0
   14.8307   12.3651   13.6148 C   0  0  0  0  0  0  0  0  0  0  0  0
   15.0553   13.7973   14.1602 C   0  0  2  0  0  0  0  0  0  0  0  0
   13.9396   14.2484   15.1463 C   0  0  0  0  0  0  0  0  0  0  0  0
   14.1640   15.6939   15.6513 C   0  0  1  0  0  0  0  0  0  0  0  0
   15.4914   15.7510   16.4238 C   0  0  0  0  0  0  0  0  0  0  0  0
   16.6431   15.2901   15.5165 C   0  0  2  0  0  0  0  0  0  0  0  0
   16.7543   16.2288   14.3170 C   0  0  0  0  0  0  0  0  0  0  0  0
   15.4169   16.2643   13.5852 C   0  0  2  0  0  0  0  0  0  0  0  0
   14.2913   16.6986   14.5132 C   0  0  0  0  0  0  0  0  0  0  0  0
   15.1417   14.8591   13.0274 C   0  0  0  0  0  0  0  0  0  0  0  0
   16.3293   13.8541   15.0765 C   0  0  0  0  0  0  0  0  0  0  0  0
   14.7465   11.3170   14.5172 C   0  0  0  0  0  0  0  0  0  0  0  0
   14.7186   10.0116   14.1684 N   0  0  0  0  0  0  0  0  0  0  0  0
   14.7868    9.7313   12.8616 C   0  0  0  0  0  0  0  0  0  0  0  0
   14.7671    8.3914   12.4615 C   0  0  0  0  0  0  0  0  0  0  0  0
  1  2  2  0
  2  3  1  0
  3  4  2  0
  4  5  1  0
  5  6  2  0
  7  6  1  6
  7  8  1  0
  9  8  1  6
  9 10  1  0
 11 10  1  1
 11 12  1  0
 13 12  1  1
 13 14  1  0
 13 15  1  0
 11 16  1  0
  6 17  1  0
 17 18  2  0
 18 19  1  0
 19 20  2  0
 20  1  1  0
 19  4  1  0
 15  7  1  0
 16  7  1  0
 14  9  1  0
M  END
>  <original ID>  (269) 
HQSSEIFZGFOSAN-WXZYKRPKSA-N

>  <generation_date>  (269) 
None

>  <alias>  (269) 
None

>  <original SMILES>  (269) 
c1ccc2nc([C@]34C[C@H]5C[C@H](C[C@H](C5)C3)C4)cnc2c1

>  <HIPPO ID>  (269) 
66239

>  <tags>  (269) 
[]

>  <ref_pdb>  (269) 
c0300a

>  <method>  (269) 
None

>  <ref_url>  (269) 
None

>  <inchikey>  (269) 
HQSSEIFZGFOSAN-WXZYKRPKSA-N

>  <submitter_email>  (269) 
None

>  <ref_mols>  (269) 
c0839a,c1299a

>  <submitter_name>  (269) 
None

$$$$
JNAZDNSFZKAVHS-MCXHQAMOSA-N
     RDKit          3D

 21 25  0  0  0  0  0  0  0  0999 V2000
   14.9825   14.4826   12.8880 Br  0  0  0  0  0  0  0  0  0  0  0  0
   14.5884   12.6558   12.6675 C   0  0  0  0  0  0  0  0  0  0  0  0
   14.4471   11.9737   13.8457 C   0  0  0  0  0  0  0  0  0  0  0  0
   14.5554   10.6420   13.8994 N   0  0  0  0  0  0  0  0  0  0  0  0
   14.7600    9.9677   12.7567 C   0  0  0  0  0  0  0  0  0  0  0  0
   14.8794    8.5642   12.8108 C   0  0  0  0  0  0  0  0  0  0  0  0
   15.0623    7.8735   14.1842 C   0  0  1  0  0  0  0  0  0  0  0  0
   16.2763    8.4897   14.9637 C   0  0  0  0  0  0  0  0  0  0  0  0
   16.4450    7.8752   16.3548 C   0  0  2  0  0  0  0  0  0  0  0  0
   16.7258    6.3780   16.1956 C   0  0  0  0  0  0  0  0  0  0  0  0
   15.5559    5.7108   15.4643 C   0  0  1  0  0  0  0  0  0  0  0  0
   14.2754    5.9147   16.2814 C   0  0  0  0  0  0  0  0  0  0  0  0
   13.9758    7.4070   16.4440 C   0  0  1  0  0  0  0  0  0  0  0  0
   15.1533    8.0932   17.1521 C   0  0  0  0  0  0  0  0  0  0  0  0
   13.7757    8.0170   15.0499 C   0  0  0  0  0  0  0  0  0  0  0  0
   15.3672    6.3473   14.0743 C   0  0  0  0  0  0  0  0  0  0  0  0
   14.8560    7.8480   11.5949 C   0  0  0  0  0  0  0  0  0  0  0  0
   14.8436    8.5206   10.3699 C   0  0  0  0  0  0  0  0  0  0  0  0
   14.8680    9.9163   10.3416 C   0  0  0  0  0  0  0  0  0  0  0  0
   14.8039   10.6639   11.5179 C   0  0  0  0  0  0  0  0  0  0  0  0
   14.7762   12.0182   11.4827 N   0  0  0  0  0  0  0  0  0  0  0  0
  1  2  1  0
  2  3  2  0
  3  4  1  0
  4  5  2  0
  5  6  1  0
  7  6  1  6
  7  8  1  0
  9  8  1  6
  9 10  1  0
 11 10  1  1
 11 12  1  0
 13 12  1  6
 13 14  1  0
 13 15  1  0
 11 16  1  0
  6 17  2  0
 17 18  1  0
 18 19  2  0
 19 20  1  0
 20 21  2  0
 21  2  1  0
 20  5  1  0
 15  7  1  0
 16  7  1  0
 14  9  1  0
M  END
>  <original ID>  (270) 
JNAZDNSFZKAVHS-MCXHQAMOSA-N

>  <generation_date>  (270) 
None

>  <alias>  (270) 
None

>  <original SMILES>  (270) 
Brc1cnc2c(cccc2[C@]23C[C@H]4C[C@H](C[C@H](C4)C2)C3)n1

>  <HIPPO ID>  (270) 
66389

>  <tags>  (270) 
[]

>  <ref_pdb>  (270) 
c0300a

>  <method>  (270) 
None

>  <ref_url>  (270) 
None

>  <inchikey>  (270) 
JNAZDNSFZKAVHS-MCXHQAMOSA-N

>  <submitter_email>  (270) 
None

>  <ref_mols>  (270) 
c0839a,c1299a

>  <submitter_name>  (270) 
None

$$$$
HLTZORDCKBABGX-CSVIQDERSA-N
     RDKit          3D

 21 25  0  0  0  0  0  0  0  0999 V2000
   14.4382   13.6520   12.0709 C   0  0  0  0  0  0  0  0  0  0  0  0
   14.6518   12.3112   12.6242 C   0  0  0  0  0  0  0  0  0  0  0  0
   14.6671   11.3819   11.6295 N   0  0  0  0  0  0  0  0  0  0  0  0
   14.8321   10.1126   11.9684 C   0  0  0  0  0  0  0  0  0  0  0  0
   14.7800    9.1372   10.9651 C   0  0  0  0  0  0  0  0  0  0  0  0
   14.8165    7.7838   11.2871 C   0  0  0  0  0  0  0  0  0  0  0  0
   14.9597    7.4212   12.6225 C   0  0  0  0  0  0  0  0  0  0  0  0
   15.0639    8.4095   13.6193 C   0  0  0  0  0  0  0  0  0  0  0  0
   14.9990    9.7700   13.3257 C   0  0  0  0  0  0  0  0  0  0  0  0
   15.0926   10.7246   14.3036 N   0  0  0  0  0  0  0  0  0  0  0  0
   14.9683   12.0350   13.9551 C   0  0  0  0  0  0  0  0  0  0  0  0
   15.1310   13.1389   15.0450 C   0  0  2  0  0  0  0  0  0  0  0  0
   13.7350   13.6656   15.3659 C   0  0  0  0  0  0  0  0  0  0  0  0
   13.6885   14.8252   16.3496 C   0  0  1  0  0  0  0  0  0  0  0  0
   14.2117   14.2783   17.6836 C   0  0  0  0  0  0  0  0  0  0  0  0
   15.6374   13.7280   17.4902 C   0  0  2  0  0  0  0  0  0  0  0  0
   16.5215   14.9081   17.0596 C   0  0  0  0  0  0  0  0  0  0  0  0
   16.0173   15.4677   15.7253 C   0  0  2  0  0  0  0  0  0  0  0  0
   14.5751   15.9658   15.8514 C   0  0  0  0  0  0  0  0  0  0  0  0
   16.0801   14.3288   14.7050 C   0  0  0  0  0  0  0  0  0  0  0  0
   15.6636   12.6046   16.4100 C   0  0  0  0  0  0  0  0  0  0  0  0
  1  2  1  0
  2  3  2  0
  3  4  1  0
  4  5  2  0
  5  6  1  0
  6  7  2  0
  7  8  1  0
  8  9  2  0
  9 10  1  0
 10 11  2  0
 12 11  1  6
 12 13  1  0
 14 13  1  6
 14 15  1  0
 16 15  1  6
 16 17  1  0
 18 17  1  1
 18 19  1  0
 18 20  1  0
 16 21  1  0
 11  2  1  0
 20 12  1  0
  9  4  1  0
 21 12  1  0
 19 14  1  0
M  END
>  <original ID>  (271) 
HLTZORDCKBABGX-CSVIQDERSA-N

>  <generation_date>  (271) 
None

>  <alias>  (271) 
None

>  <original SMILES>  (271) 
Cc1nc2ccccc2nc1[C@]12C[C@H]3C[C@H](C[C@H](C3)C1)C2

>  <HIPPO ID>  (271) 
66410

>  <tags>  (271) 
[]

>  <ref_pdb>  (271) 
c0300a

>  <method>  (271) 
None

>  <ref_url>  (271) 
None

>  <inchikey>  (271) 
HLTZORDCKBABGX-CSVIQDERSA-N

>  <submitter_email>  (271) 
None

>  <ref_mols>  (271) 
c0839a,c1299a

>  <submitter_name>  (271) 
None

$$$$
YXTOWVIQVSVRQG-MCXHQAMOSA-N
     RDKit          3D

 21 25  0  0  0  0  0  0  0  0999 V2000
   14.7961    7.4841   13.4160 F   0  0  0  0  0  0  0  0  0  0  0  0
   14.7941    8.4559   12.4915 C   0  0  0  0  0  0  0  0  0  0  0  0
   14.7903    8.0859   11.1454 C   0  0  0  0  0  0  0  0  0  0  0  0
   14.8357    9.0817   10.1827 C   0  0  0  0  0  0  0  0  0  0  0  0
   14.8613   10.4234   10.5942 C   0  0  0  0  0  0  0  0  0  0  0  0
   14.8299   10.8139   11.9427 C   0  0  0  0  0  0  0  0  0  0  0  0
   14.8662   12.1307   12.3167 N   0  0  0  0  0  0  0  0  0  0  0  0
   14.8413   12.4261   13.6576 C   0  0  0  0  0  0  0  0  0  0  0  0
   15.0717   13.8586   14.1936 C   0  0  1  0  0  0  0  0  0  0  0  0
   16.3793   13.9336   15.0578 C   0  0  0  0  0  0  0  0  0  0  0  0
   16.7087   15.3780   15.4574 C   0  0  2  0  0  0  0  0  0  0  0  0
   15.6078   15.8182   16.4306 C   0  0  0  0  0  0  0  0  0  0  0  0
   14.2377   15.7351   15.7395 C   0  0  1  0  0  0  0  0  0  0  0  0
   14.2693   16.7348   14.5950 C   0  0  0  0  0  0  0  0  0  0  0  0
   15.3513   16.3292   13.6028 C   0  0  1  0  0  0  0  0  0  0  0  0
   16.7290   16.3249   14.2568 C   0  0  0  0  0  0  0  0  0  0  0  0
   15.1126   14.9130   13.0565 C   0  0  0  0  0  0  0  0  0  0  0  0
   13.9879   14.2997   15.2215 C   0  0  0  0  0  0  0  0  0  0  0  0
   14.7752   11.3874   14.5683 C   0  0  0  0  0  0  0  0  0  0  0  0
   14.7455   10.0851   14.2230 N   0  0  0  0  0  0  0  0  0  0  0  0
   14.7968    9.7912   12.9122 C   0  0  0  0  0  0  0  0  0  0  0  0
  1  2  1  0
  2  3  2  0
  3  4  1  0
  4  5  2  0
  5  6  1  0
  6  7  2  0
  7  8  1  0
  9  8  1  6
  9 10  1  0
 11 10  1  6
 11 12  1  0
 13 12  1  6
 13 14  1  0
 15 14  1  1
 15 16  1  0
 15 17  1  0
 13 18  1  0
  8 19  2  0
 19 20  1  0
 20 21  2  0
 21  2  1  0
 21  6  1  0
 17  9  1  0
 18  9  1  0
 16 11  1  0
M  END
>  <original ID>  (272) 
YXTOWVIQVSVRQG-MCXHQAMOSA-N

>  <generation_date>  (272) 
None

>  <alias>  (272) 
None

>  <original SMILES>  (272) 
Fc1cccc2nc([C@]34C[C@H]5C[C@H](C[C@H](C5)C3)C4)cnc12

>  <HIPPO ID>  (272) 
66415

>  <tags>  (272) 
[]

>  <ref_pdb>  (272) 
c0300a

>  <method>  (272) 
None

>  <ref_url>  (272) 
None

>  <inchikey>  (272) 
YXTOWVIQVSVRQG-MCXHQAMOSA-N

>  <submitter_email>  (272) 
None

>  <ref_mols>  (272) 
c0839a,c1299a

>  <submitter_name>  (272) 
None

$$$$
ISCBLVMHJBXXGV-MCXHQAMOSA-N
     RDKit          3D

 21 25  0  0  0  0  0  0  0  0999 V2000
   14.8662    7.1096   13.8416 Br  0  0  0  0  0  0  0  0  0  0  0  0
   14.8055    8.4874   12.5333 C   0  0  0  0  0  0  0  0  0  0  0  0
   14.7965    8.1136   11.1836 C   0  0  0  0  0  0  0  0  0  0  0  0
   14.8316    9.1071   10.2167 C   0  0  0  0  0  0  0  0  0  0  0  0
   14.8525   10.4506   10.6198 C   0  0  0  0  0  0  0  0  0  0  0  0
   14.8218   10.8498   11.9641 C   0  0  0  0  0  0  0  0  0  0  0  0
   14.8570   12.1729   12.3204 N   0  0  0  0  0  0  0  0  0  0  0  0
   14.8340   12.4869   13.6560 C   0  0  0  0  0  0  0  0  0  0  0  0
   15.0566   13.9251   14.1820 C   0  0  2  0  0  0  0  0  0  0  0  0
   15.1691   14.9682   13.0381 C   0  0  0  0  0  0  0  0  0  0  0  0
   15.4286   16.3829   13.5799 C   0  0  1  0  0  0  0  0  0  0  0  0
   14.2708   16.8186   14.4658 C   0  0  0  0  0  0  0  0  0  0  0  0
   14.1210   15.8357   15.6214 C   0  0  2  0  0  0  0  0  0  0  0  0
   15.4280   15.9115   16.4253 C   0  0  0  0  0  0  0  0  0  0  0  0
   16.6063   15.4446   15.5548 C   0  0  2  0  0  0  0  0  0  0  0  0
   16.7451   16.3674   14.3479 C   0  0  0  0  0  0  0  0  0  0  0  0
   16.3245   14.0034   15.1074 C   0  0  0  0  0  0  0  0  0  0  0  0
   13.9271   14.3765   15.1530 C   0  0  0  0  0  0  0  0  0  0  0  0
   14.7625   11.4610   14.5781 C   0  0  0  0  0  0  0  0  0  0  0  0
   14.7382   10.1560   14.2487 N   0  0  0  0  0  0  0  0  0  0  0  0
   14.7944    9.8335   12.9431 C   0  0  0  0  0  0  0  0  0  0  0  0
  1  2  1  0
  2  3  2  0
  3  4  1  0
  4  5  2  0
  5  6  1  0
  6  7  2  0
  7  8  1  0
  9  8  1  6
  9 10  1  0
 11 10  1  1
 11 12  1  0
 13 12  1  6
 13 14  1  0
 15 14  1  1
 15 16  1  0
 15 17  1  0
 13 18  1  0
  8 19  2  0
 19 20  1  0
 20 21  2  0
 21  2  1  0
 21  6  1  0
 17  9  1  0
 18  9  1  0
 16 11  1  0
M  END
>  <original ID>  (273) 
ISCBLVMHJBXXGV-MCXHQAMOSA-N

>  <generation_date>  (273) 
None

>  <alias>  (273) 
None

>  <original SMILES>  (273) 
Brc1cccc2nc([C@]34C[C@H]5C[C@H](C[C@H](C5)C3)C4)cnc12

>  <HIPPO ID>  (273) 
66453

>  <tags>  (273) 
[]

>  <ref_pdb>  (273) 
c0300a

>  <method>  (273) 
None

>  <ref_url>  (273) 
None

>  <inchikey>  (273) 
ISCBLVMHJBXXGV-MCXHQAMOSA-N

>  <submitter_email>  (273) 
None

>  <ref_mols>  (273) 
c0839a,c1299a

>  <submitter_name>  (273) 
None

$$$$
CCSPMCKLJAYIOR-SHTZXODSSA-N
     RDKit          3D

 21 24  0  0  0  0  0  0  0  0999 V2000
   14.9433   18.6727   11.1928 F   0  0  0  0  0  0  0  0  0  0  0  0
   16.0141   19.1702   11.8602 C   0  0  0  0  0  0  0  0  0  0  0  0
   15.6327   20.3679   12.3313 F   0  0  0  0  0  0  0  0  0  0  0  0
   16.9974   19.3718   10.9527 F   0  0  0  0  0  0  0  0  0  0  0  0
   16.4875   18.2230   12.9803 C   0  0  0  0  0  0  0  0  0  0  0  0
   15.3694   17.6745   13.8987 C   0  0  0  0  0  0  0  0  0  0  0  0
   15.3964   16.1816   14.0902 C   0  0  1  0  0  0  0  0  0  0  0  0
   15.1850   15.2124   12.8986 C   0  0  0  0  0  0  0  0  0  0  0  0
   15.1457   14.2013   14.0343 C   0  0  1  0  0  0  0  0  0  0  0  0
   14.9227   12.7032   13.7601 C   0  0  0  0  0  0  0  0  0  0  0  0
   14.8659   11.7246   14.7293 C   0  0  0  0  0  0  0  0  0  0  0  0
   14.7947   10.3928   14.4685 N   0  0  0  0  0  0  0  0  0  0  0  0
   14.8034   10.0111   13.1791 C   0  0  0  0  0  0  0  0  0  0  0  0
   14.7946    8.6483   12.8590 C   0  0  0  0  0  0  0  0  0  0  0  0
   14.7789    8.1979   11.5307 C   0  0  0  0  0  0  0  0  0  0  0  0
   14.8151    9.1302   10.5009 C   0  0  0  0  0  0  0  0  0  0  0  0
   14.8363   10.4974   10.8213 C   0  0  0  0  0  0  0  0  0  0  0  0
   14.8195   10.9672   12.1448 C   0  0  0  0  0  0  0  0  0  0  0  0
   14.8765   12.3013   12.4399 N   0  0  0  0  0  0  0  0  0  0  0  0
   16.4041   15.0498   14.5905 C   0  0  0  0  0  0  0  0  0  0  0  0
   14.3443   15.2685   14.8619 C   0  0  0  0  0  0  0  0  0  0  0  0
  1  2  1  0
  2  3  1  0
  2  4  1  0
  2  5  1  0
  5  6  1  0
  7  6  1  6
  7  8  1  0
  8  9  1  0
  9 10  1  6
 10 11  2  0
 11 12  1  0
 12 13  2  0
 13 14  1  0
 14 15  2  0
 15 16  1  0
 16 17  2  0
 17 18  1  0
 18 19  2  0
  9 20  1  0
  9 21  1  0
 20  7  1  0
 21  7  1  0
 19 10  1  0
 18 13  1  0
M  END
>  <original ID>  (274) 
CCSPMCKLJAYIOR-SHTZXODSSA-N

>  <generation_date>  (274) 
None

>  <alias>  (274) 
None

>  <original SMILES>  (274) 
FC(F)(F)CC[C@]12C[C@](c3cnc4ccccc4n3)(C1)C2

>  <HIPPO ID>  (274) 
66534

>  <tags>  (274) 
[]

>  <ref_pdb>  (274) 
c0300a

>  <method>  (274) 
None

>  <ref_url>  (274) 
None

>  <inchikey>  (274) 
CCSPMCKLJAYIOR-SHTZXODSSA-N

>  <submitter_email>  (274) 
None

>  <ref_mols>  (274) 
c0839a,c1299a

>  <submitter_name>  (274) 
None

$$$$
KVIOCSGZJHNKPL-SHTZXODSSA-N
     RDKit          3D

 22 25  0  0  0  0  0  0  0  0999 V2000
   16.2709    4.3262   18.0353 F   0  0  0  0  0  0  0  0  0  0  0  0
   15.0441    4.8043   17.7620 C   0  0  0  0  0  0  0  0  0  0  0  0
   14.1478    4.1247   18.5089 F   0  0  0  0  0  0  0  0  0  0  0  0
   14.7711    4.5600   16.4646 F   0  0  0  0  0  0  0  0  0  0  0  0
   14.9330    6.2743   18.0748 C   0  0  0  0  0  0  0  0  0  0  0  0
   15.9278    7.1074   17.2895 C   0  0  0  0  0  0  0  0  0  0  0  0
   15.5062    7.3010   15.8795 C   0  0  2  0  0  0  0  0  0  0  0  0
   16.2563    8.3724   15.0290 C   0  0  0  0  0  0  0  0  0  0  0  0
   15.1061    7.9147   14.0558 C   0  0  2  0  0  0  0  0  0  0  0  0
   14.8772    8.5503   12.6925 C   0  0  0  0  0  0  0  0  0  0  0  0
   14.8477    7.8403   11.4773 C   0  0  0  0  0  0  0  0  0  0  0  0
   14.8294    8.5137   10.2535 C   0  0  0  0  0  0  0  0  0  0  0  0
   14.8526    9.9114   10.2245 C   0  0  0  0  0  0  0  0  0  0  0  0
   14.7926   10.6587   11.4022 C   0  0  0  0  0  0  0  0  0  0  0  0
   14.7589   12.0152   11.4002 N   0  0  0  0  0  0  0  0  0  0  0  0
   14.5837   12.6238   12.6045 C   0  0  0  0  0  0  0  0  0  0  0  0
   14.9659   14.4482   12.8667 Br  0  0  0  0  0  0  0  0  0  0  0  0
   14.4653   11.9146   13.7718 C   0  0  0  0  0  0  0  0  0  0  0  0
   14.5785   10.5831   13.7959 N   0  0  0  0  0  0  0  0  0  0  0  0
   14.7590    9.9476   12.6283 C   0  0  0  0  0  0  0  0  0  0  0  0
   14.1930    7.9723   15.3242 C   0  0  0  0  0  0  0  0  0  0  0  0
   15.4794    6.4771   14.5121 C   0  0  0  0  0  0  0  0  0  0  0  0
  1  2  1  0
  2  3  1  0
  2  4  1  0
  2  5  1  0
  5  6  1  0
  7  6  1  1
  7  8  1  0
  8  9  1  0
  9 10  1  6
 10 11  2  0
 11 12  1  0
 12 13  2  0
 13 14  1  0
 14 15  2  0
 15 16  1  0
 16 17  1  0
 16 18  2  0
 18 19  1  0
 19 20  2  0
  9 21  1  0
  9 22  1  0
 21  7  1  0
 22  7  1  0
 20 10  1  0
 20 14  1  0
M  END
>  <original ID>  (275) 
KVIOCSGZJHNKPL-SHTZXODSSA-N

>  <generation_date>  (275) 
None

>  <alias>  (275) 
None

>  <original SMILES>  (275) 
FC(F)(F)CC[C@]12C[C@](c3cccc4nc(Br)cnc43)(C1)C2

>  <HIPPO ID>  (275) 
66560

>  <tags>  (275) 
[]

>  <ref_pdb>  (275) 
c0300a

>  <method>  (275) 
None

>  <ref_url>  (275) 
None

>  <inchikey>  (275) 
KVIOCSGZJHNKPL-SHTZXODSSA-N

>  <submitter_email>  (275) 
None

>  <ref_mols>  (275) 
c0839a,c1299a

>  <submitter_name>  (275) 
None

$$$$
NBZFVEAMDGRZEQ-SHTZXODSSA-N
     RDKit          3D

 22 25  0  0  0  0  0  0  0  0999 V2000
   13.7246   20.1301   13.0197 F   0  0  0  0  0  0  0  0  0  0  0  0
   14.4880   19.5036   13.9375 C   0  0  0  0  0  0  0  0  0  0  0  0
   15.7755   19.8051   13.6677 F   0  0  0  0  0  0  0  0  0  0  0  0
   14.1904   19.9993   15.1491 F   0  0  0  0  0  0  0  0  0  0  0  0
   14.2590   18.0083   13.8879 C   0  0  0  0  0  0  0  0  0  0  0  0
   15.4079   17.2409   14.5314 C   0  0  0  0  0  0  0  0  0  0  0  0
   15.2214   15.7735   14.4134 C   0  0  1  0  0  0  0  0  0  0  0  0
   15.1081   15.0303   13.0510 C   0  0  0  0  0  0  0  0  0  0  0  0
   15.0742   13.8479   14.0163 C   0  0  1  0  0  0  0  0  0  0  0  0
   14.9098   12.3857   13.6487 C   0  0  0  0  0  0  0  0  0  0  0  0
   14.8610   11.3844   14.5903 C   0  0  0  0  0  0  0  0  0  0  0  0
   14.8109   10.0743   14.2845 N   0  0  0  0  0  0  0  0  0  0  0  0
   14.8278    9.7266   12.9800 C   0  0  0  0  0  0  0  0  0  0  0  0
   14.8138    8.3772   12.5855 C   0  0  0  0  0  0  0  0  0  0  0  0
   14.8726    7.0174   13.9103 Br  0  0  0  0  0  0  0  0  0  0  0  0
   14.7847    7.9866   11.2401 C   0  0  0  0  0  0  0  0  0  0  0  0
   14.8175    8.9649   10.2565 C   0  0  0  0  0  0  0  0  0  0  0  0
   14.8583   10.3127   10.6381 C   0  0  0  0  0  0  0  0  0  0  0  0
   14.8496   10.7223   11.9809 C   0  0  0  0  0  0  0  0  0  0  0  0
   14.8960   12.0433   12.3176 N   0  0  0  0  0  0  0  0  0  0  0  0
   16.2638   14.6302   14.7506 C   0  0  0  0  0  0  0  0  0  0  0  0
   14.2059   14.7206   14.9931 C   0  0  0  0  0  0  0  0  0  0  0  0
  1  2  1  0
  2  3  1  0
  2  4  1  0
  2  5  1  0
  5  6  1  0
  7  6  1  6
  7  8  1  0
  8  9  1  0
  9 10  1  6
 10 11  2  0
 11 12  1  0
 12 13  2  0
 13 14  1  0
 14 15  1  0
 14 16  2  0
 16 17  1  0
 17 18  2  0
 18 19  1  0
 19 20  2  0
  9 21  1  0
  9 22  1  0
 21  7  1  0
 22  7  1  0
 20 10  1  0
 19 13  1  0
M  END
>  <original ID>  (276) 
NBZFVEAMDGRZEQ-SHTZXODSSA-N

>  <generation_date>  (276) 
None

>  <alias>  (276) 
None

>  <original SMILES>  (276) 
FC(F)(F)CC[C@]12C[C@](c3cnc4c(Br)cccc4n3)(C1)C2

>  <HIPPO ID>  (276) 
66561

>  <tags>  (276) 
[]

>  <ref_pdb>  (276) 
c0300a

>  <method>  (276) 
None

>  <ref_url>  (276) 
None

>  <inchikey>  (276) 
NBZFVEAMDGRZEQ-SHTZXODSSA-N

>  <submitter_email>  (276) 
None

>  <ref_mols>  (276) 
c0839a,c1299a

>  <submitter_name>  (276) 
None

$$$$
MOVAZDQIZYYJHY-SHTZXODSSA-N
     RDKit          3D

 22 25  0  0  0  0  0  0  0  0999 V2000
   14.8283    7.7346   13.6825 F   0  0  0  0  0  0  0  0  0  0  0  0
   14.8060    8.6748   12.7261 C   0  0  0  0  0  0  0  0  0  0  0  0
   14.7932    8.2490   11.3930 C   0  0  0  0  0  0  0  0  0  0  0  0
   14.8205    9.2044   10.3889 C   0  0  0  0  0  0  0  0  0  0  0  0
   14.8266   10.5611   10.7503 C   0  0  0  0  0  0  0  0  0  0  0  0
   14.8009   11.0027   12.0842 C   0  0  0  0  0  0  0  0  0  0  0  0
   14.8405   12.3345   12.3985 N   0  0  0  0  0  0  0  0  0  0  0  0
   14.8669   12.7121   13.7237 C   0  0  0  0  0  0  0  0  0  0  0  0
   15.0987   14.1916   14.0567 C   0  0  1  0  0  0  0  0  0  0  0  0
   14.3120   15.2104   14.9666 C   0  0  0  0  0  0  0  0  0  0  0  0
   15.4422   16.1345   14.3455 C   0  0  1  0  0  0  0  0  0  0  0  0
   15.6732   17.6226   14.4191 C   0  0  0  0  0  0  0  0  0  0  0  0
   16.0142   18.2019   13.0452 C   0  0  0  0  0  0  0  0  0  0  0  0
   16.4126   19.6484   12.8894 C   0  0  0  0  0  0  0  0  0  0  0  0
   16.8884   19.8578   11.6356 F   0  0  0  0  0  0  0  0  0  0  0  0
   17.3747   19.9932   13.7579 F   0  0  0  0  0  0  0  0  0  0  0  0
   15.3504   20.4602   13.0496 F   0  0  0  0  0  0  0  0  0  0  0  0
   16.3695   14.9068   14.7337 C   0  0  0  0  0  0  0  0  0  0  0  0
   15.2162   15.3138   13.0337 C   0  0  0  0  0  0  0  0  0  0  0  0
   14.8148   11.7190   14.6785 C   0  0  0  0  0  0  0  0  0  0  0  0
   14.7680   10.3953   14.3968 N   0  0  0  0  0  0  0  0  0  0  0  0
   14.7930   10.0279   13.0984 C   0  0  0  0  0  0  0  0  0  0  0  0
  1  2  1  0
  2  3  2  0
  3  4  1  0
  4  5  2  0
  5  6  1  0
  6  7  2  0
  7  8  1  0
  9  8  1  6
  9 10  1  0
 10 11  1  0
 11 12  1  6
 12 13  1  0
 13 14  1  0
 14 15  1  0
 14 16  1  0
 14 17  1  0
 11 18  1  0
 11 19  1  0
  8 20  2  0
 20 21  1  0
 21 22  2  0
 22  2  1  0
 22  6  1  0
 18  9  1  0
 19  9  1  0
M  END
>  <original ID>  (277) 
MOVAZDQIZYYJHY-SHTZXODSSA-N

>  <generation_date>  (277) 
None

>  <alias>  (277) 
None

>  <original SMILES>  (277) 
Fc1cccc2nc([C@]34C[C@](CCC(F)(F)F)(C3)C4)cnc12

>  <HIPPO ID>  (277) 
66562

>  <tags>  (277) 
[]

>  <ref_pdb>  (277) 
c0300a

>  <method>  (277) 
None

>  <ref_url>  (277) 
None

>  <inchikey>  (277) 
MOVAZDQIZYYJHY-SHTZXODSSA-N

>  <submitter_email>  (277) 
None

>  <ref_mols>  (277) 
c0839a,c1299a

>  <submitter_name>  (277) 
None

$$$$
ROWRDGHLXJOJAU-MSOLQXFVSA-N
     RDKit          3D

 22 25  0  0  0  0  0  0  0  0999 V2000
   19.0787   10.7913   15.2155 C   0  0  0  0  0  0  0  0  0  0  0  0
   17.5868   10.8616   15.3876 C   0  0  0  0  0  0  0  0  0  0  0  0
   17.0743   12.0604   14.8008 O   0  0  0  0  0  0  0  0  0  0  0  0
   16.7942   13.0638   15.6646 C   0  0  0  0  0  0  0  0  0  0  0  0
   17.0834   13.0148   16.8564 O   0  0  0  0  0  0  0  0  0  0  0  0
   15.9798   14.2257   15.0601 C   0  0  1  0  0  0  0  0  0  0  0  0
   16.8538   15.4095   14.6242 C   0  0  0  0  0  0  0  0  0  0  0  0
   16.0806   16.0769   13.5099 C   0  0  0  0  0  0  0  0  0  0  0  0
   15.2810   14.9554   12.8488 C   0  0  0  0  0  0  0  0  0  0  0  0
   14.8894   13.9792   13.9481 C   0  0  1  0  0  0  0  0  0  0  0  0
   14.6161   12.4659   13.4285 C   0  0  0  0  0  0  0  0  0  0  0  0
   14.3900   11.4367   14.3317 C   0  0  0  0  0  0  0  0  0  0  0  0
   14.4559   10.1183   14.0429 N   0  0  0  0  0  0  0  0  0  0  0  0
   14.6976    9.7982   12.7679 C   0  0  0  0  0  0  0  0  0  0  0  0
   14.7336    8.4436   12.4197 C   0  0  0  0  0  0  0  0  0  0  0  0
   14.8093    8.0330   11.0868 C   0  0  0  0  0  0  0  0  0  0  0  0
   14.9117    8.9960   10.0947 C   0  0  0  0  0  0  0  0  0  0  0  0
   14.9303   10.3528   10.4510 C   0  0  0  0  0  0  0  0  0  0  0  0
   14.8141   10.7980   11.7756 C   0  0  0  0  0  0  0  0  0  0  0  0
   14.8118   12.1295   12.1130 N   0  0  0  0  0  0  0  0  0  0  0  0
   13.8570   14.6419   14.9127 C   0  0  0  0  0  0  0  0  0  0  0  0
   14.8545   14.6699   16.0348 C   0  0  0  0  0  0  0  0  0  0  0  0
  1  2  1  0
  2  3  1  0
  3  4  1  0
  4  5  2  0
  6  4  1  1
  6  7  1  0
  7  8  1  0
  8  9  1  0
  9 10  1  0
 10 11  1  6
 11 12  2  0
 12 13  1  0
 13 14  2  0
 14 15  1  0
 15 16  2  0
 16 17  1  0
 17 18  2  0
 18 19  1  0
 19 20  2  0
 10 21  1  0
 21 22  1  0
 10  6  1  0
 20 11  1  0
 22  6  1  0
 19 14  1  0
M  END
>  <original ID>  (278) 
ROWRDGHLXJOJAU-MSOLQXFVSA-N

>  <generation_date>  (278) 
None

>  <alias>  (278) 
None

>  <original SMILES>  (278) 
CCOC(=O)[C@@]12CCC[C@]1(c1cnc3ccccc3n1)CC2

>  <HIPPO ID>  (278) 
66578

>  <tags>  (278) 
[]

>  <ref_pdb>  (278) 
c0300a

>  <method>  (278) 
None

>  <ref_url>  (278) 
None

>  <inchikey>  (278) 
ROWRDGHLXJOJAU-MSOLQXFVSA-N

>  <submitter_email>  (278) 
None

>  <ref_mols>  (278) 
c0839a,c1299a

>  <submitter_name>  (278) 
None

$$$$
ROWRDGHLXJOJAU-ZWKOTPCHSA-N
     RDKit          3D

 22 25  0  0  0  0  0  0  0  0999 V2000
   20.0445   15.2675   10.4853 C   0  0  0  0  0  0  0  0  0  0  0  0
   19.2647   16.3080   11.3015 C   0  0  0  0  0  0  0  0  0  0  0  0
   18.6943   15.9805   12.6025 O   0  0  0  0  0  0  0  0  0  0  0  0
   17.3920   15.5935   12.6999 C   0  0  0  0  0  0  0  0  0  0  0  0
   16.8150   14.9079   11.8711 O   0  0  0  0  0  0  0  0  0  0  0  0
   16.6169   15.8029   13.9804 C   0  0  2  0  0  0  0  0  0  0  0  0
   17.4282   15.7407   15.2655 C   0  0  0  0  0  0  0  0  0  0  0  0
   16.5947   14.9253   16.2469 C   0  0  0  0  0  0  0  0  0  0  0  0
   15.1495   15.0552   15.7992 C   0  0  0  0  0  0  0  0  0  0  0  0
   15.2524   14.9529   14.2637 C   0  0  2  0  0  0  0  0  0  0  0  0
   14.9719   13.3725   13.7907 C   0  0  0  0  0  0  0  0  0  0  0  0
   15.0664   12.2657   14.6432 C   0  0  0  0  0  0  0  0  0  0  0  0
   14.9653   10.9564   14.2794 N   0  0  0  0  0  0  0  0  0  0  0  0
   14.8047   10.7172   12.9785 C   0  0  0  0  0  0  0  0  0  0  0  0
   14.8681    9.4067   12.4994 C   0  0  0  0  0  0  0  0  0  0  0  0
   14.8212    9.1228   11.1266 C   0  0  0  0  0  0  0  0  0  0  0  0
   14.6837   10.1735   10.2321 C   0  0  0  0  0  0  0  0  0  0  0  0
   14.5394   11.4764   10.7393 C   0  0  0  0  0  0  0  0  0  0  0  0
   14.6331   11.7889   12.0857 C   0  0  0  0  0  0  0  0  0  0  0  0
   14.6798   13.0970   12.4894 N   0  0  0  0  0  0  0  0  0  0  0  0
   14.5214   16.1246   13.5890 C   0  0  0  0  0  0  0  0  0  0  0  0
   15.6998   17.0602   13.8630 C   0  0  0  0  0  0  0  0  0  0  0  0
  1  2  1  0
  2  3  1  0
  3  4  1  0
  4  5  2  0
  6  4  1  6
  6  7  1  0
  7  8  1  0
  8  9  1  0
  9 10  1  0
 10 11  1  6
 11 12  2  0
 12 13  1  0
 13 14  2  0
 14 15  1  0
 15 16  2  0
 16 17  1  0
 17 18  2  0
 18 19  1  0
 19 20  2  0
 10 21  1  0
 21 22  1  0
 10  6  1  0
 20 11  1  0
 22  6  1  0
 19 14  1  0
M  END
>  <original ID>  (279) 
ROWRDGHLXJOJAU-ZWKOTPCHSA-N

>  <generation_date>  (279) 
None

>  <alias>  (279) 
None

>  <original SMILES>  (279) 
CCOC(=O)[C@]12CCC[C@@]1(c1cnc3ccccc3n1)CC2

>  <HIPPO ID>  (279) 
66579

>  <tags>  (279) 
[]

>  <ref_pdb>  (279) 
c0300a

>  <method>  (279) 
None

>  <ref_url>  (279) 
None

>  <inchikey>  (279) 
ROWRDGHLXJOJAU-ZWKOTPCHSA-N

>  <submitter_email>  (279) 
None

>  <ref_mols>  (279) 
c0839a,c1299a

>  <submitter_name>  (279) 
None

$$$$
ROWRDGHLXJOJAU-ROUUACIJSA-N
     RDKit          3D

 22 25  0  0  0  0  0  0  0  0999 V2000
   13.5401   18.8214   13.0366 C   0  0  0  0  0  0  0  0  0  0  0  0
   14.4747   17.8138   13.6892 C   0  0  0  0  0  0  0  0  0  0  0  0
   14.0111   16.4606   13.4562 O   0  0  0  0  0  0  0  0  0  0  0  0
   14.8937   15.4548   13.0990 C   0  0  0  0  0  0  0  0  0  0  0  0
   16.0838   15.7122   12.9438 O   0  0  0  0  0  0  0  0  0  0  0  0
   14.1677   13.8658   13.0800 C   0  0  1  0  0  0  0  0  0  0  0  0
   13.2907   13.5983   11.8549 C   0  0  0  0  0  0  0  0  0  0  0  0
   13.9183   12.7311   10.8735 C   0  0  0  0  0  0  0  0  0  0  0  0
   15.2683   12.8263   11.4463 C   0  0  0  0  0  0  0  0  0  0  0  0
   15.0654   12.5939   12.9754 C   0  0  2  0  0  0  0  0  0  0  0  0
   14.7700   11.0087   13.0794 C   0  0  0  0  0  0  0  0  0  0  0  0
   14.6322   10.2420   14.2184 C   0  0  0  0  0  0  0  0  0  0  0  0
   14.5874    8.8921   14.2064 N   0  0  0  0  0  0  0  0  0  0  0  0
   14.6642    8.2892   13.0037 C   0  0  0  0  0  0  0  0  0  0  0  0
   14.5617    6.9154   12.8978 C   0  0  0  0  0  0  0  0  0  0  0  0
   14.4917    6.2941   11.6504 C   0  0  0  0  0  0  0  0  0  0  0  0
   14.5397    7.0543   10.4895 C   0  0  0  0  0  0  0  0  0  0  0  0
   14.7270    8.4246   10.5748 C   0  0  0  0  0  0  0  0  0  0  0  0
   14.7766    9.0353   11.8210 C   0  0  0  0  0  0  0  0  0  0  0  0
   14.8769   10.3583   11.8904 N   0  0  0  0  0  0  0  0  0  0  0  0
   15.5342   13.1166   14.4490 C   0  0  0  0  0  0  0  0  0  0  0  0
   14.0353   13.4900   14.5931 C   0  0  0  0  0  0  0  0  0  0  0  0
  1  2  1  0
  2  3  1  0
  3  4  1  0
  4  5  2  0
  6  4  1  1
  6  7  1  0
  7  8  1  0
  8  9  1  0
  9 10  1  0
 10 11  1  6
 11 12  2  0
 12 13  1  0
 13 14  2  0
 14 15  1  0
 15 16  2  0
 16 17  1  0
 17 18  2  0
 18 19  1  0
 19 20  2  0
 10 21  1  0
 21 22  1  0
 10  6  1  0
 20 11  1  0
 22  6  1  0
 19 14  1  0
M  END
>  <original ID>  (280) 
ROWRDGHLXJOJAU-ROUUACIJSA-N

>  <generation_date>  (280) 
None

>  <alias>  (280) 
None

>  <original SMILES>  (280) 
CCOC(=O)[C@@]12CCC[C@@]1(c1cnc3ccccc3n1)CC2

>  <HIPPO ID>  (280) 
66580

>  <tags>  (280) 
[]

>  <ref_pdb>  (280) 
c0300a

>  <method>  (280) 
None

>  <ref_url>  (280) 
None

>  <inchikey>  (280) 
ROWRDGHLXJOJAU-ROUUACIJSA-N

>  <submitter_email>  (280) 
None

>  <ref_mols>  (280) 
c0839a,c1299a

>  <submitter_name>  (280) 
None

$$$$
OZTRVWUJXCNUPV-ZWKOTPCHSA-N
     RDKit          3D

 23 26  0  0  0  0  0  0  0  0999 V2000
   12.3971   14.9423   17.8172 C   0  0  0  0  0  0  0  0  0  0  0  0
   12.3061   15.4181   16.3780 C   0  0  0  0  0  0  0  0  0  0  0  0
   12.8692   14.6007   15.3910 O   0  0  0  0  0  0  0  0  0  0  0  0
   13.9212   13.9600   15.8770 C   0  0  0  0  0  0  0  0  0  0  0  0
   13.8533   12.9577   16.5789 O   0  0  0  0  0  0  0  0  0  0  0  0
   15.2032   14.5738   15.4248 C   0  0  2  0  0  0  0  0  0  0  0  0
   15.2859   16.0835   15.1582 C   0  0  0  0  0  0  0  0  0  0  0  0
   14.9532   16.2433   13.7058 C   0  0  0  0  0  0  0  0  0  0  0  0
   15.3501   14.9261   13.0519 C   0  0  0  0  0  0  0  0  0  0  0  0
   15.6759   13.8770   14.1448 C   0  0  2  0  0  0  0  0  0  0  0  0
   15.1516   12.3529   13.7011 C   0  0  0  0  0  0  0  0  0  0  0  0
   15.1057   11.2810   14.5782 C   0  0  0  0  0  0  0  0  0  0  0  0
   14.9207    9.9958   14.2108 N   0  0  0  0  0  0  0  0  0  0  0  0
   14.8512    9.7336   12.8976 C   0  0  0  0  0  0  0  0  0  0  0  0
   14.7868    8.4093   12.4504 C   0  0  0  0  0  0  0  0  0  0  0  0
   14.7965    7.4189   13.3547 F   0  0  0  0  0  0  0  0  0  0  0  0
   14.7429    8.0700   11.0976 C   0  0  0  0  0  0  0  0  0  0  0  0
   14.7863    9.0868   10.1568 C   0  0  0  0  0  0  0  0  0  0  0  0
   14.8493   10.4184   10.5969 C   0  0  0  0  0  0  0  0  0  0  0  0
   14.8776   10.7770   11.9540 C   0  0  0  0  0  0  0  0  0  0  0  0
   15.0114   12.0802   12.3570 N   0  0  0  0  0  0  0  0  0  0  0  0
   17.1266   13.9121   14.8883 C   0  0  0  0  0  0  0  0  0  0  0  0
   16.4426   14.1278   16.2080 C   0  0  0  0  0  0  0  0  0  0  0  0
  1  2  1  0
  2  3  1  0
  3  4  1  0
  4  5  2  0
  6  4  1  1
  6  7  1  0
  7  8  1  0
  8  9  1  0
  9 10  1  0
 10 11  1  6
 11 12  2  0
 12 13  1  0
 13 14  2  0
 14 15  1  0
 15 16  1  0
 15 17  2  0
 17 18  1  0
 18 19  2  0
 19 20  1  0
 20 21  2  0
 10 22  1  0
 22 23  1  0
 10  6  1  0
 21 11  1  0
 23  6  1  0
 20 14  1  0
M  END
>  <original ID>  (281) 
OZTRVWUJXCNUPV-ZWKOTPCHSA-N

>  <generation_date>  (281) 
None

>  <alias>  (281) 
None

>  <original SMILES>  (281) 
CCOC(=O)[C@]12CCC[C@@]1(c1cnc3c(F)cccc3n1)CC2

>  <HIPPO ID>  (281) 
66691

>  <tags>  (281) 
[]

>  <ref_pdb>  (281) 
c0300a

>  <method>  (281) 
None

>  <ref_url>  (281) 
None

>  <inchikey>  (281) 
OZTRVWUJXCNUPV-ZWKOTPCHSA-N

>  <submitter_email>  (281) 
None

>  <ref_mols>  (281) 
c0839a,c1299a

>  <submitter_name>  (281) 
None

$$$$
OZTRVWUJXCNUPV-ROUUACIJSA-N
     RDKit          3D

 23 26  0  0  0  0  0  0  0  0999 V2000
   13.4832   19.5100   11.2971 C   0  0  0  0  0  0  0  0  0  0  0  0
   14.1392   19.0861   12.5936 C   0  0  0  0  0  0  0  0  0  0  0  0
   14.0744   17.6490   12.7152 O   0  0  0  0  0  0  0  0  0  0  0  0
   14.5102   17.1260   13.9407 C   0  0  0  0  0  0  0  0  0  0  0  0
   14.9782   17.8592   14.8002 O   0  0  0  0  0  0  0  0  0  0  0  0
   14.4542   15.4654   13.9793 C   0  0  1  0  0  0  0  0  0  0  0  0
   15.1598   15.1497   12.7037 C   0  0  0  0  0  0  0  0  0  0  0  0
   16.5905   15.6341   13.0425 C   0  0  0  0  0  0  0  0  0  0  0  0
   16.7585   15.0426   14.4596 C   0  0  0  0  0  0  0  0  0  0  0  0
   15.3865   14.4121   14.7048 C   0  0  2  0  0  0  0  0  0  0  0  0
   15.2029   12.6970   14.2450 C   0  0  0  0  0  0  0  0  0  0  0  0
   15.2623   11.6560   15.1464 C   0  0  0  0  0  0  0  0  0  0  0  0
   15.0986   10.3432   14.8125 N   0  0  0  0  0  0  0  0  0  0  0  0
   14.9363   10.0214   13.5057 C   0  0  0  0  0  0  0  0  0  0  0  0
   14.8786    8.6932   13.0526 C   0  0  0  0  0  0  0  0  0  0  0  0
   14.9462    7.6957   13.9451 F   0  0  0  0  0  0  0  0  0  0  0  0
   14.7879    8.3442   11.6980 C   0  0  0  0  0  0  0  0  0  0  0  0
   14.7811    9.3547   10.7466 C   0  0  0  0  0  0  0  0  0  0  0  0
   14.7964   10.6878   11.1881 C   0  0  0  0  0  0  0  0  0  0  0  0
   14.8625   11.0364   12.5493 C   0  0  0  0  0  0  0  0  0  0  0  0
   14.9495   12.3396   12.9356 N   0  0  0  0  0  0  0  0  0  0  0  0
   14.6236   14.7728   16.0003 C   0  0  0  0  0  0  0  0  0  0  0  0
   13.4279   14.9624   15.0758 C   0  0  0  0  0  0  0  0  0  0  0  0
  1  2  1  0
  2  3  1  0
  3  4  1  0
  4  5  2  0
  6  4  1  1
  6  7  1  0
  7  8  1  0
  8  9  1  0
  9 10  1  0
 10 11  1  6
 11 12  2  0
 12 13  1  0
 13 14  2  0
 14 15  1  0
 15 16  1  0
 15 17  2  0
 17 18  1  0
 18 19  2  0
 19 20  1  0
 20 21  2  0
 10 22  1  0
 22 23  1  0
 10  6  1  0
 21 11  1  0
 23  6  1  0
 20 14  1  0
M  END
>  <original ID>  (282) 
OZTRVWUJXCNUPV-ROUUACIJSA-N

>  <generation_date>  (282) 
None

>  <alias>  (282) 
None

>  <original SMILES>  (282) 
CCOC(=O)[C@@]12CCC[C@@]1(c1cnc3c(F)cccc3n1)CC2

>  <HIPPO ID>  (282) 
66692

>  <tags>  (282) 
[]

>  <ref_pdb>  (282) 
c0300a

>  <method>  (282) 
None

>  <ref_url>  (282) 
None

>  <inchikey>  (282) 
OZTRVWUJXCNUPV-ROUUACIJSA-N

>  <submitter_email>  (282) 
None

>  <ref_mols>  (282) 
c0839a,c1299a

>  <submitter_name>  (282) 
None

$$$$
YRZKLXIDNPLLGQ-MOPGFXCFSA-N
     RDKit          3D

 23 26  0  0  0  0  0  0  0  0999 V2000
   13.7788   16.9365   14.8754 C   0  0  0  0  0  0  0  0  0  0  0  0
   13.0712   16.0551   15.8845 C   0  0  0  0  0  0  0  0  0  0  0  0
   13.9993   15.0930   16.3968 O   0  0  0  0  0  0  0  0  0  0  0  0
   14.1086   13.9333   15.6933 C   0  0  0  0  0  0  0  0  0  0  0  0
   13.4171   13.6632   14.7277 O   0  0  0  0  0  0  0  0  0  0  0  0
   15.2275   13.0357   16.2473 C   0  0  1  0  0  0  0  0  0  0  0  0
   14.9869   12.7696   17.7513 C   0  0  0  0  0  0  0  0  0  0  0  0
   15.6099   11.4262   18.0506 C   0  0  0  0  0  0  0  0  0  0  0  0
   15.4255   10.6385   16.7654 C   0  0  0  0  0  0  0  0  0  0  0  0
   15.5961   11.6569   15.5952 C   0  0  1  0  0  0  0  0  0  0  0  0
   15.0694   11.0009   14.1927 C   0  0  0  0  0  0  0  0  0  0  0  0
   15.0706    9.6332   14.3014 N   0  0  0  0  0  0  0  0  0  0  0  0
   14.9334    8.8547   13.2094 C   0  0  0  0  0  0  0  0  0  0  0  0
   14.9294    7.4679   13.3231 C   0  0  0  0  0  0  0  0  0  0  0  0
   14.7938    6.6438   12.2015 C   0  0  0  0  0  0  0  0  0  0  0  0
   14.6755    7.2123   10.9399 C   0  0  0  0  0  0  0  0  0  0  0  0
   14.7068    8.5994   10.8119 C   0  0  0  0  0  0  0  0  0  0  0  0
   14.8100    9.4245   11.9345 C   0  0  0  0  0  0  0  0  0  0  0  0
   14.7518   10.7544   11.8015 N   0  0  0  0  0  0  0  0  0  0  0  0
   14.8189   11.5386   12.9190 C   0  0  0  0  0  0  0  0  0  0  0  0
   14.6485   12.9753   12.5492 C   0  0  0  0  0  0  0  0  0  0  0  0
   17.0921   12.1160   15.5787 C   0  0  0  0  0  0  0  0  0  0  0  0
   16.6582   13.5427   15.8986 C   0  0  0  0  0  0  0  0  0  0  0  0
  1  2  1  0
  2  3  1  0
  3  4  1  0
  4  5  2  0
  6  4  1  6
  6  7  1  0
  7  8  1  0
  8  9  1  0
  9 10  1  0
 10 11  1  6
 11 12  2  0
 12 13  1  0
 13 14  2  0
 14 15  1  0
 15 16  2  0
 16 17  1  0
 17 18  2  0
 18 19  1  0
 19 20  2  0
 20 21  1  0
 10 22  1  0
 22 23  1  0
 10  6  1  0
 20 11  1  0
 23  6  1  0
 18 13  1  0
M  END
>  <original ID>  (283) 
YRZKLXIDNPLLGQ-MOPGFXCFSA-N

>  <generation_date>  (283) 
None

>  <alias>  (283) 
None

>  <original SMILES>  (283) 
CCOC(=O)[C@@]12CCC[C@]1(c1nc3ccccc3nc1C)CC2

>  <HIPPO ID>  (283) 
66758

>  <tags>  (283) 
[]

>  <ref_pdb>  (283) 
c0300a

>  <method>  (283) 
None

>  <ref_url>  (283) 
None

>  <inchikey>  (283) 
YRZKLXIDNPLLGQ-MOPGFXCFSA-N

>  <submitter_email>  (283) 
None

>  <ref_mols>  (283) 
c0839a,c1299a

>  <submitter_name>  (283) 
None

$$$$
YRZKLXIDNPLLGQ-RBUKOAKNSA-N
     RDKit          3D

 23 26  0  0  0  0  0  0  0  0999 V2000
   18.8371   16.8559   12.3081 C   0  0  0  0  0  0  0  0  0  0  0  0
   17.5839   17.4466   12.9173 C   0  0  0  0  0  0  0  0  0  0  0  0
   16.9056   16.6167   13.8885 O   0  0  0  0  0  0  0  0  0  0  0  0
   16.3636   15.4162   13.5577 C   0  0  0  0  0  0  0  0  0  0  0  0
   16.4302   14.9528   12.4325 O   0  0  0  0  0  0  0  0  0  0  0  0
   15.7634   14.6489   14.7704 C   0  0  2  0  0  0  0  0  0  0  0  0
   16.7908   14.6155   15.9249 C   0  0  0  0  0  0  0  0  0  0  0  0
   16.3169   13.5236   16.8569 C   0  0  0  0  0  0  0  0  0  0  0  0
   15.8530   12.4442   15.8994 C   0  0  0  0  0  0  0  0  0  0  0  0
   15.1146   13.1748   14.7406 C   0  0  2  0  0  0  0  0  0  0  0  0
   14.9382   12.0967   13.4957 C   0  0  0  0  0  0  0  0  0  0  0  0
   15.0950   10.7824   13.8355 N   0  0  0  0  0  0  0  0  0  0  0  0
   14.9881    9.8167   12.8753 C   0  0  0  0  0  0  0  0  0  0  0  0
   14.9951    8.4585   13.1954 C   0  0  0  0  0  0  0  0  0  0  0  0
   14.8752    7.4643   12.2082 C   0  0  0  0  0  0  0  0  0  0  0  0
   14.7805    7.8200   10.8653 C   0  0  0  0  0  0  0  0  0  0  0  0
   14.7967    9.1683   10.5219 C   0  0  0  0  0  0  0  0  0  0  0  0
   14.8555   10.1505   11.5113 C   0  0  0  0  0  0  0  0  0  0  0  0
   14.6815   11.4142   11.1593 N   0  0  0  0  0  0  0  0  0  0  0  0
   14.5889   12.3244   12.1658 C   0  0  0  0  0  0  0  0  0  0  0  0
   13.7480   13.4631   11.8108 C   0  0  0  0  0  0  0  0  0  0  0  0
   13.8032   13.8199   15.2386 C   0  0  0  0  0  0  0  0  0  0  0  0
   14.3969   15.2203   15.2141 C   0  0  0  0  0  0  0  0  0  0  0  0
  1  2  1  0
  2  3  1  0
  3  4  1  0
  4  5  2  0
  6  4  1  6
  6  7  1  0
  7  8  1  0
  8  9  1  0
  9 10  1  0
 10 11  1  6
 11 12  2  0
 12 13  1  0
 13 14  2  0
 14 15  1  0
 15 16  2  0
 16 17  1  0
 17 18  2  0
 18 19  1  0
 19 20  2  0
 20 21  1  0
 10 22  1  0
 22 23  1  0
 10  6  1  0
 20 11  1  0
 23  6  1  0
 18 13  1  0
M  END
>  <original ID>  (284) 
YRZKLXIDNPLLGQ-RBUKOAKNSA-N

>  <generation_date>  (284) 
None

>  <alias>  (284) 
None

>  <original SMILES>  (284) 
CCOC(=O)[C@]12CCC[C@@]1(c1nc3ccccc3nc1C)CC2

>  <HIPPO ID>  (284) 
66759

>  <tags>  (284) 
[]

>  <ref_pdb>  (284) 
c0300a

>  <method>  (284) 
None

>  <ref_url>  (284) 
None

>  <inchikey>  (284) 
YRZKLXIDNPLLGQ-RBUKOAKNSA-N

>  <submitter_email>  (284) 
None

>  <ref_mols>  (284) 
c0839a,c1299a

>  <submitter_name>  (284) 
None

$$$$
YRZKLXIDNPLLGQ-OALUTQOASA-N
     RDKit          3D

 23 26  0  0  0  0  0  0  0  0999 V2000
   13.5005   16.2393   18.4687 C   0  0  0  0  0  0  0  0  0  0  0  0
   14.7781   16.3969   17.6710 C   0  0  0  0  0  0  0  0  0  0  0  0
   14.9330   15.2028   16.9005 O   0  0  0  0  0  0  0  0  0  0  0  0
   15.9595   15.2273   16.0110 C   0  0  0  0  0  0  0  0  0  0  0  0
   16.7694   16.1530   15.9442 O   0  0  0  0  0  0  0  0  0  0  0  0
   15.9185   14.0046   14.9797 C   0  0  1  0  0  0  0  0  0  0  0  0
   17.0852   13.0938   15.3381 C   0  0  0  0  0  0  0  0  0  0  0  0
   16.5305   12.2834   16.5103 C   0  0  0  0  0  0  0  0  0  0  0  0
   15.0343   12.1398   16.2116 C   0  0  0  0  0  0  0  0  0  0  0  0
   14.8568   12.7939   14.8433 C   0  0  2  0  0  0  0  0  0  0  0  0
   14.8453   11.6119   13.5666 C   0  0  0  0  0  0  0  0  0  0  0  0
   15.0297   10.3309   13.9917 N   0  0  0  0  0  0  0  0  0  0  0  0
   14.9765    9.3113   13.0848 C   0  0  0  0  0  0  0  0  0  0  0  0
   15.0438    7.9789   13.4718 C   0  0  0  0  0  0  0  0  0  0  0  0
   14.9538    6.9334   12.5376 C   0  0  0  0  0  0  0  0  0  0  0  0
   14.8093    7.2075   11.1815 C   0  0  0  0  0  0  0  0  0  0  0  0
   14.7734    8.5289   10.7660 C   0  0  0  0  0  0  0  0  0  0  0  0
   14.8397    9.5547   11.7035 C   0  0  0  0  0  0  0  0  0  0  0  0
   14.7056   10.7864   11.2656 N   0  0  0  0  0  0  0  0  0  0  0  0
   14.5792   11.7734   12.1861 C   0  0  0  0  0  0  0  0  0  0  0  0
   14.2139   12.9977   11.4620 C   0  0  0  0  0  0  0  0  0  0  0  0
   13.8484   13.8799   14.5187 C   0  0  0  0  0  0  0  0  0  0  0  0
   15.0520   14.6380   13.8289 C   0  0  0  0  0  0  0  0  0  0  0  0
  1  2  1  0
  2  3  1  0
  3  4  1  0
  4  5  2  0
  6  4  1  1
  6  7  1  0
  7  8  1  0
  8  9  1  0
  9 10  1  0
 10 11  1  6
 11 12  2  0
 12 13  1  0
 13 14  2  0
 14 15  1  0
 15 16  2  0
 16 17  1  0
 17 18  2  0
 18 19  1  0
 19 20  2  0
 20 21  1  0
 10 22  1  0
 22 23  1  0
 10  6  1  0
 20 11  1  0
 23  6  1  0
 18 13  1  0
M  END
>  <original ID>  (285) 
YRZKLXIDNPLLGQ-OALUTQOASA-N

>  <generation_date>  (285) 
None

>  <alias>  (285) 
None

>  <original SMILES>  (285) 
CCOC(=O)[C@@]12CCC[C@@]1(c1nc3ccccc3nc1C)CC2

>  <HIPPO ID>  (285) 
66760

>  <tags>  (285) 
[]

>  <ref_pdb>  (285) 
c0300a

>  <method>  (285) 
None

>  <ref_url>  (285) 
None

>  <inchikey>  (285) 
YRZKLXIDNPLLGQ-OALUTQOASA-N

>  <submitter_email>  (285) 
None

>  <ref_mols>  (285) 
c0839a,c1299a

>  <submitter_name>  (285) 
None

$$$$
WYDOSZBDQGKVCH-QZTJIDSGSA-N
     RDKit          3D

 23 26  0  0  0  0  0  0  0  0999 V2000
   17.7627    7.6900   19.2414 C   0  0  0  0  0  0  0  0  0  0  0  0
   16.2499    7.7892   19.2664 C   0  0  0  0  0  0  0  0  0  0  0  0
   15.7991    8.2843   18.0007 O   0  0  0  0  0  0  0  0  0  0  0  0
   15.3810    7.3664   17.0733 C   0  0  0  0  0  0  0  0  0  0  0  0
   15.2562    6.1697   17.2997 O   0  0  0  0  0  0  0  0  0  0  0  0
   15.1126    8.1364   15.6951 C   0  0  2  0  0  0  0  0  0  0  0  0
   13.6696    8.6123   15.8180 C   0  0  0  0  0  0  0  0  0  0  0  0
   12.8197    7.4399   15.3022 C   0  0  0  0  0  0  0  0  0  0  0  0
   13.7465    6.5746   14.4485 C   0  0  0  0  0  0  0  0  0  0  0  0
   14.9626    7.4585   14.2487 C   0  0  1  0  0  0  0  0  0  0  0  0
   14.8088    8.3474   12.7995 C   0  0  0  0  0  0  0  0  0  0  0  0
   14.7878    7.6561   11.5618 C   0  0  0  0  0  0  0  0  0  0  0  0
   14.7967    8.3288   10.3369 C   0  0  0  0  0  0  0  0  0  0  0  0
   14.8417    9.7222   10.3072 C   0  0  0  0  0  0  0  0  0  0  0  0
   14.8076   10.4640   11.4843 C   0  0  0  0  0  0  0  0  0  0  0  0
   14.7705   11.8194   11.4420 N   0  0  0  0  0  0  0  0  0  0  0  0
   14.6214   12.4620   12.6269 C   0  0  0  0  0  0  0  0  0  0  0  0
   14.9066   14.3086   12.8040 Br  0  0  0  0  0  0  0  0  0  0  0  0
   14.5899   11.7842   13.8141 C   0  0  0  0  0  0  0  0  0  0  0  0
   14.7143   10.4519   13.8658 N   0  0  0  0  0  0  0  0  0  0  0  0
   14.7878    9.7609   12.7255 C   0  0  0  0  0  0  0  0  0  0  0  0
   16.4405    7.0360   14.4444 C   0  0  0  0  0  0  0  0  0  0  0  0
   16.5926    8.4347   15.1533 C   0  0  0  0  0  0  0  0  0  0  0  0
  1  2  1  0
  2  3  1  0
  3  4  1  0
  4  5  2  0
  6  4  1  1
  6  7  1  0
  7  8  1  0
  8  9  1  0
  9 10  1  0
 10 11  1  6
 11 12  2  0
 12 13  1  0
 13 14  2  0
 14 15  1  0
 15 16  2  0
 16 17  1  0
 17 18  1  0
 17 19  2  0
 19 20  1  0
 20 21  2  0
 10 22  1  0
 22 23  1  0
 10  6  1  0
 21 11  1  0
 23  6  1  0
 21 15  1  0
M  END
>  <original ID>  (286) 
WYDOSZBDQGKVCH-QZTJIDSGSA-N

>  <generation_date>  (286) 
None

>  <alias>  (286) 
None

>  <original SMILES>  (286) 
CCOC(=O)[C@]12CCC[C@]1(c1cccc3nc(Br)cnc13)CC2

>  <HIPPO ID>  (286) 
66771

>  <tags>  (286) 
[]

>  <ref_pdb>  (286) 
c0300a

>  <method>  (286) 
None

>  <ref_url>  (286) 
None

>  <inchikey>  (286) 
WYDOSZBDQGKVCH-QZTJIDSGSA-N

>  <submitter_email>  (286) 
None

>  <ref_mols>  (286) 
c0839a,c1299a

>  <submitter_name>  (286) 
None

$$$$
WYDOSZBDQGKVCH-MSOLQXFVSA-N
     RDKit          3D

 23 26  0  0  0  0  0  0  0  0999 V2000
   14.7730   11.8649   17.6984 C   0  0  0  0  0  0  0  0  0  0  0  0
   14.7064   10.9804   16.4601 C   0  0  0  0  0  0  0  0  0  0  0  0
   14.1724    9.6802   16.7475 O   0  0  0  0  0  0  0  0  0  0  0  0
   13.8173    8.9242   15.6583 C   0  0  0  0  0  0  0  0  0  0  0  0
   12.7812    9.1052   15.0196 O   0  0  0  0  0  0  0  0  0  0  0  0
   14.7126    7.6997   15.4740 C   0  0  1  0  0  0  0  0  0  0  0  0
   13.9993    6.4256   15.9687 C   0  0  0  0  0  0  0  0  0  0  0  0
   14.7538    5.2895   15.3081 C   0  0  0  0  0  0  0  0  0  0  0  0
   14.9903    5.8237   13.9116 C   0  0  0  0  0  0  0  0  0  0  0  0
   15.3134    7.3333   14.0657 C   0  0  1  0  0  0  0  0  0  0  0  0
   14.9861    8.1194   12.6343 C   0  0  0  0  0  0  0  0  0  0  0  0
   14.8330    7.4178   11.4119 C   0  0  0  0  0  0  0  0  0  0  0  0
   14.6855    8.0597   10.1782 C   0  0  0  0  0  0  0  0  0  0  0  0
   14.6936    9.4437   10.0986 C   0  0  0  0  0  0  0  0  0  0  0  0
   14.7730   10.1995   11.2513 C   0  0  0  0  0  0  0  0  0  0  0  0
   14.6405   11.5453   11.1646 N   0  0  0  0  0  0  0  0  0  0  0  0
   14.6643   12.2043   12.3307 C   0  0  0  0  0  0  0  0  0  0  0  0
   14.7262   14.0540   12.5260 Br  0  0  0  0  0  0  0  0  0  0  0  0
   14.9847   11.5623   13.4920 C   0  0  0  0  0  0  0  0  0  0  0  0
   15.1281   10.2357   13.6145 N   0  0  0  0  0  0  0  0  0  0  0  0
   14.9460    9.5211   12.5109 C   0  0  0  0  0  0  0  0  0  0  0  0
   16.7243    7.5991   14.6812 C   0  0  0  0  0  0  0  0  0  0  0  0
   16.1448    7.7945   16.0667 C   0  0  0  0  0  0  0  0  0  0  0  0
  1  2  1  0
  2  3  1  0
  3  4  1  0
  4  5  2  0
  6  4  1  6
  6  7  1  0
  7  8  1  0
  8  9  1  0
  9 10  1  0
 10 11  1  6
 11 12  2  0
 12 13  1  0
 13 14  2  0
 14 15  1  0
 15 16  2  0
 16 17  1  0
 17 18  1  0
 17 19  2  0
 19 20  1  0
 20 21  2  0
 10 22  1  0
 22 23  1  0
 10  6  1  0
 21 11  1  0
 23  6  1  0
 21 15  1  0
M  END
>  <original ID>  (287) 
WYDOSZBDQGKVCH-MSOLQXFVSA-N

>  <generation_date>  (287) 
None

>  <alias>  (287) 
None

>  <original SMILES>  (287) 
CCOC(=O)[C@@]12CCC[C@]1(c1cccc3nc(Br)cnc13)CC2

>  <HIPPO ID>  (287) 
66772

>  <tags>  (287) 
[]

>  <ref_pdb>  (287) 
c0300a

>  <method>  (287) 
None

>  <ref_url>  (287) 
None

>  <inchikey>  (287) 
WYDOSZBDQGKVCH-MSOLQXFVSA-N

>  <submitter_email>  (287) 
None

>  <ref_mols>  (287) 
c0839a,c1299a

>  <submitter_name>  (287) 
None

$$$$
WYDOSZBDQGKVCH-ZWKOTPCHSA-N
     RDKit          3D

 23 26  0  0  0  0  0  0  0  0999 V2000
   16.6109    3.5669   11.2892 C   0  0  0  0  0  0  0  0  0  0  0  0
   17.4750    3.7471   12.5186 C   0  0  0  0  0  0  0  0  0  0  0  0
   16.7503    4.4533   13.5312 O   0  0  0  0  0  0  0  0  0  0  0  0
   16.5606    5.7783   13.2854 C   0  0  0  0  0  0  0  0  0  0  0  0
   17.0295    6.3009   12.2811 O   0  0  0  0  0  0  0  0  0  0  0  0
   15.7258    6.4638   14.4118 C   0  0  2  0  0  0  0  0  0  0  0  0
   14.6454    5.5443   15.0230 C   0  0  0  0  0  0  0  0  0  0  0  0
   13.6727    6.4856   15.7124 C   0  0  0  0  0  0  0  0  0  0  0  0
   13.5555    7.6274   14.7294 C   0  0  0  0  0  0  0  0  0  0  0  0
   14.9804    7.8204   14.1673 C   0  0  2  0  0  0  0  0  0  0  0  0
   14.8538    8.5482   12.7343 C   0  0  0  0  0  0  0  0  0  0  0  0
   14.7698    7.8718   11.4964 C   0  0  0  0  0  0  0  0  0  0  0  0
   14.7945    8.5594   10.2813 C   0  0  0  0  0  0  0  0  0  0  0  0
   14.8636    9.9512   10.2770 C   0  0  0  0  0  0  0  0  0  0  0  0
   14.8103   10.6736   11.4678 C   0  0  0  0  0  0  0  0  0  0  0  0
   14.7832   12.0269   11.4693 N   0  0  0  0  0  0  0  0  0  0  0  0
   14.6030   12.6310   12.6726 C   0  0  0  0  0  0  0  0  0  0  0  0
   14.9748   14.4609   12.9148 Br  0  0  0  0  0  0  0  0  0  0  0  0
   14.4787   11.9164   13.8378 C   0  0  0  0  0  0  0  0  0  0  0  0
   14.5804   10.5806   13.8614 N   0  0  0  0  0  0  0  0  0  0  0  0
   14.7680    9.9500   12.6909 C   0  0  0  0  0  0  0  0  0  0  0  0
   15.9675    8.4857   15.1961 C   0  0  0  0  0  0  0  0  0  0  0  0
   16.6133    7.1428   15.4935 C   0  0  0  0  0  0  0  0  0  0  0  0
  1  2  1  0
  2  3  1  0
  3  4  1  0
  4  5  2  0
  6  4  1  6
  6  7  1  0
  7  8  1  0
  8  9  1  0
  9 10  1  0
 10 11  1  6
 11 12  2  0
 12 13  1  0
 13 14  2  0
 14 15  1  0
 15 16  2  0
 16 17  1  0
 17 18  1  0
 17 19  2  0
 19 20  1  0
 20 21  2  0
 10 22  1  0
 22 23  1  0
 10  6  1  0
 21 11  1  0
 23  6  1  0
 21 15  1  0
M  END
>  <original ID>  (288) 
WYDOSZBDQGKVCH-ZWKOTPCHSA-N

>  <generation_date>  (288) 
None

>  <alias>  (288) 
None

>  <original SMILES>  (288) 
CCOC(=O)[C@]12CCC[C@@]1(c1cccc3nc(Br)cnc13)CC2

>  <HIPPO ID>  (288) 
66773

>  <tags>  (288) 
[]

>  <ref_pdb>  (288) 
c0300a

>  <method>  (288) 
None

>  <ref_url>  (288) 
None

>  <inchikey>  (288) 
WYDOSZBDQGKVCH-ZWKOTPCHSA-N

>  <submitter_email>  (288) 
None

>  <ref_mols>  (288) 
c0839a,c1299a

>  <submitter_name>  (288) 
None

$$$$
WYDOSZBDQGKVCH-ROUUACIJSA-N
     RDKit          3D

 23 26  0  0  0  0  0  0  0  0999 V2000
   17.3757    3.2113   17.7461 C   0  0  0  0  0  0  0  0  0  0  0  0
   16.4418    4.4023   17.7924 C   0  0  0  0  0  0  0  0  0  0  0  0
   16.1715    4.7976   16.4440 O   0  0  0  0  0  0  0  0  0  0  0  0
   15.3439    5.8756   16.3178 C   0  0  0  0  0  0  0  0  0  0  0  0
   14.8213    6.4248   17.2824 O   0  0  0  0  0  0  0  0  0  0  0  0
   15.2254    6.2794   14.7436 C   0  0  1  0  0  0  0  0  0  0  0  0
   13.9816    5.6277   14.1719 C   0  0  0  0  0  0  0  0  0  0  0  0
   12.8666    6.6280   14.5313 C   0  0  0  0  0  0  0  0  0  0  0  0
   13.5716    7.9127   14.9977 C   0  0  0  0  0  0  0  0  0  0  0  0
   14.9499    7.8014   14.3575 C   0  0  2  0  0  0  0  0  0  0  0  0
   14.8373    8.4596   12.8303 C   0  0  0  0  0  0  0  0  0  0  0  0
   14.8203    7.7578   11.6051 C   0  0  0  0  0  0  0  0  0  0  0  0
   14.8234    8.4318   10.3786 C   0  0  0  0  0  0  0  0  0  0  0  0
   14.8549    9.8272   10.3473 C   0  0  0  0  0  0  0  0  0  0  0  0
   14.8113   10.5711   11.5251 C   0  0  0  0  0  0  0  0  0  0  0  0
   14.7746   11.9240   11.5021 N   0  0  0  0  0  0  0  0  0  0  0  0
   14.6225   12.5484   12.6993 C   0  0  0  0  0  0  0  0  0  0  0  0
   14.9443   14.3922   12.8856 Br  0  0  0  0  0  0  0  0  0  0  0  0
   14.5631   11.8549   13.8828 C   0  0  0  0  0  0  0  0  0  0  0  0
   14.6777   10.5204   13.9264 N   0  0  0  0  0  0  0  0  0  0  0  0
   14.7901    9.8670   12.7602 C   0  0  0  0  0  0  0  0  0  0  0  0
   16.4317    7.9863   14.8834 C   0  0  0  0  0  0  0  0  0  0  0  0
   16.6661    6.5734   14.2129 C   0  0  0  0  0  0  0  0  0  0  0  0
  1  2  1  0
  2  3  1  0
  3  4  1  0
  4  5  2  0
  6  4  1  1
  6  7  1  0
  7  8  1  0
  8  9  1  0
  9 10  1  0
 10 11  1  6
 11 12  2  0
 12 13  1  0
 13 14  2  0
 14 15  1  0
 15 16  2  0
 16 17  1  0
 17 18  1  0
 17 19  2  0
 19 20  1  0
 20 21  2  0
 10 22  1  0
 22 23  1  0
 10  6  1  0
 21 11  1  0
 23  6  1  0
 21 15  1  0
M  END
>  <original ID>  (289) 
WYDOSZBDQGKVCH-ROUUACIJSA-N

>  <generation_date>  (289) 
None

>  <alias>  (289) 
None

>  <original SMILES>  (289) 
CCOC(=O)[C@@]12CCC[C@@]1(c1cccc3nc(Br)cnc13)CC2

>  <HIPPO ID>  (289) 
66774

>  <tags>  (289) 
[]

>  <ref_pdb>  (289) 
c0300a

>  <method>  (289) 
None

>  <ref_url>  (289) 
None

>  <inchikey>  (289) 
WYDOSZBDQGKVCH-ROUUACIJSA-N

>  <submitter_email>  (289) 
None

>  <ref_mols>  (289) 
c0839a,c1299a

>  <submitter_name>  (289) 
None

$$$$
DXYTUTWUTWRDKE-QZTJIDSGSA-N
     RDKit          3D

 23 26  0  0  0  0  0  0  0  0999 V2000
   18.3178   17.5144   12.2249 C   0  0  0  0  0  0  0  0  0  0  0  0
   17.2157   17.0895   13.1875 C   0  0  0  0  0  0  0  0  0  0  0  0
   16.8232   15.7016   12.9695 O   0  0  0  0  0  0  0  0  0  0  0  0
   15.4577   15.4089   12.9139 C   0  0  0  0  0  0  0  0  0  0  0  0
   14.6286   16.3126   12.9331 O   0  0  0  0  0  0  0  0  0  0  0  0
   15.2371   13.7280   12.8764 C   0  0  2  0  0  0  0  0  0  0  0  0
   15.3553   13.1582   11.4096 C   0  0  0  0  0  0  0  0  0  0  0  0
   14.0346   12.8429   10.7703 C   0  0  0  0  0  0  0  0  0  0  0  0
   13.2494   13.2687   11.9199 C   0  0  0  0  0  0  0  0  0  0  0  0
   13.9830   12.8654   13.1954 C   0  0  1  0  0  0  0  0  0  0  0  0
   14.2771   11.2340   13.2538 C   0  0  0  0  0  0  0  0  0  0  0  0
   14.4206   10.4619   14.3830 C   0  0  0  0  0  0  0  0  0  0  0  0
   14.7266    9.1527   14.3443 N   0  0  0  0  0  0  0  0  0  0  0  0
   14.8548    8.5704   13.1277 C   0  0  0  0  0  0  0  0  0  0  0  0
   15.0227    7.2032   12.9589 C   0  0  0  0  0  0  0  0  0  0  0  0
   15.2841    6.1253   14.4872 Br  0  0  0  0  0  0  0  0  0  0  0  0
   14.9692    6.5978   11.6998 C   0  0  0  0  0  0  0  0  0  0  0  0
   14.7935    7.3816   10.5680 C   0  0  0  0  0  0  0  0  0  0  0  0
   14.7535    8.7587   10.6995 C   0  0  0  0  0  0  0  0  0  0  0  0
   14.7556    9.3367   11.9668 C   0  0  0  0  0  0  0  0  0  0  0  0
   14.5369   10.6413   12.0696 N   0  0  0  0  0  0  0  0  0  0  0  0
   14.0857   13.5146   14.6332 C   0  0  0  0  0  0  0  0  0  0  0  0
   15.6174   13.3765   14.4168 C   0  0  0  0  0  0  0  0  0  0  0  0
  1  2  1  0
  2  3  1  0
  3  4  1  0
  4  5  2  0
  6  4  1  6
  6  7  1  0
  7  8  1  0
  8  9  1  0
  9 10  1  0
 10 11  1  1
 11 12  2  0
 12 13  1  0
 13 14  2  0
 14 15  1  0
 15 16  1  0
 15 17  2  0
 17 18  1  0
 18 19  2  0
 19 20  1  0
 20 21  2  0
 10 22  1  0
 22 23  1  0
 10  6  1  0
 21 11  1  0
 23  6  1  0
 20 14  1  0
M  END
>  <original ID>  (290) 
DXYTUTWUTWRDKE-QZTJIDSGSA-N

>  <generation_date>  (290) 
None

>  <alias>  (290) 
None

>  <original SMILES>  (290) 
CCOC(=O)[C@]12CCC[C@]1(c1cnc3c(Br)cccc3n1)CC2

>  <HIPPO ID>  (290) 
66780

>  <tags>  (290) 
[]

>  <ref_pdb>  (290) 
c0300a

>  <method>  (290) 
None

>  <ref_url>  (290) 
None

>  <inchikey>  (290) 
DXYTUTWUTWRDKE-QZTJIDSGSA-N

>  <submitter_email>  (290) 
None

>  <ref_mols>  (290) 
c0839a,c1299a

>  <submitter_name>  (290) 
None

$$$$
DXYTUTWUTWRDKE-MSOLQXFVSA-N
     RDKit          3D

 23 26  0  0  0  0  0  0  0  0999 V2000
   16.3706   10.8666   17.5996 C   0  0  0  0  0  0  0  0  0  0  0  0
   17.5269   11.8061   17.3266 C   0  0  0  0  0  0  0  0  0  0  0  0
   17.0254   13.0246   16.7797 O   0  0  0  0  0  0  0  0  0  0  0  0
   16.8287   13.0079   15.4418 C   0  0  0  0  0  0  0  0  0  0  0  0
   17.1879   12.0728   14.7414 O   0  0  0  0  0  0  0  0  0  0  0  0
   15.9903   14.2519   15.0187 C   0  0  1  0  0  0  0  0  0  0  0  0
   16.8542   15.4467   14.5970 C   0  0  0  0  0  0  0  0  0  0  0  0
   16.0654   16.1281   13.5042 C   0  0  0  0  0  0  0  0  0  0  0  0
   15.2725   15.0062   12.8366 C   0  0  0  0  0  0  0  0  0  0  0  0
   14.8714   14.0345   13.9284 C   0  0  1  0  0  0  0  0  0  0  0  0
   14.5957   12.5242   13.4180 C   0  0  0  0  0  0  0  0  0  0  0  0
   14.3805   11.5161   14.3409 C   0  0  0  0  0  0  0  0  0  0  0  0
   14.4483   10.2010   14.0752 N   0  0  0  0  0  0  0  0  0  0  0  0
   14.7022    9.8425   12.8064 C   0  0  0  0  0  0  0  0  0  0  0  0
   14.7814    8.4824   12.4568 C   0  0  0  0  0  0  0  0  0  0  0  0
   14.8085    7.1592   13.8225 Br  0  0  0  0  0  0  0  0  0  0  0  0
   14.8389    8.0576   11.1257 C   0  0  0  0  0  0  0  0  0  0  0  0
   14.9016    9.0145   10.1251 C   0  0  0  0  0  0  0  0  0  0  0  0
   14.9048   10.3725   10.4753 C   0  0  0  0  0  0  0  0  0  0  0  0
   14.7952   10.8278   11.7977 C   0  0  0  0  0  0  0  0  0  0  0  0
   14.7768   12.1667   12.1071 N   0  0  0  0  0  0  0  0  0  0  0  0
   13.8668   14.6871   14.9297 C   0  0  0  0  0  0  0  0  0  0  0  0
   14.8856   14.6417   16.0381 C   0  0  0  0  0  0  0  0  0  0  0  0
  1  2  1  0
  2  3  1  0
  3  4  1  0
  4  5  2  0
  6  4  1  1
  6  7  1  0
  7  8  1  0
  8  9  1  0
  9 10  1  0
 10 11  1  6
 11 12  2  0
 12 13  1  0
 13 14  2  0
 14 15  1  0
 15 16  1  0
 15 17  2  0
 17 18  1  0
 18 19  2  0
 19 20  1  0
 20 21  2  0
 10 22  1  0
 22 23  1  0
 10  6  1  0
 21 11  1  0
 23  6  1  0
 20 14  1  0
M  END
>  <original ID>  (291) 
DXYTUTWUTWRDKE-MSOLQXFVSA-N

>  <generation_date>  (291) 
None

>  <alias>  (291) 
None

>  <original SMILES>  (291) 
CCOC(=O)[C@@]12CCC[C@]1(c1cnc3c(Br)cccc3n1)CC2

>  <HIPPO ID>  (291) 
66781

>  <tags>  (291) 
[]

>  <ref_pdb>  (291) 
c0300a

>  <method>  (291) 
None

>  <ref_url>  (291) 
None

>  <inchikey>  (291) 
DXYTUTWUTWRDKE-MSOLQXFVSA-N

>  <submitter_email>  (291) 
None

>  <ref_mols>  (291) 
c0839a,c1299a

>  <submitter_name>  (291) 
None

$$$$
DXYTUTWUTWRDKE-ZWKOTPCHSA-N
     RDKit          3D

 23 26  0  0  0  0  0  0  0  0999 V2000
   14.5311   10.3254    8.8872 C   0  0  0  0  0  0  0  0  0  0  0  0
   15.5752   10.8789    9.7708 C   0  0  0  0  0  0  0  0  0  0  0  0
   15.4691   11.8765   10.8268 O   0  0  0  0  0  0  0  0  0  0  0  0
   14.4902   12.7532   11.1034 C   0  0  0  0  0  0  0  0  0  0  0  0
   13.5924   12.9233   10.2887 O   0  0  0  0  0  0  0  0  0  0  0  0
   14.5977   13.3890   12.6364 C   0  0  2  0  0  0  0  0  0  0  0  0
   15.2313   14.7811   12.7713 C   0  0  0  0  0  0  0  0  0  0  0  0
   15.8404   15.0052   14.1643 C   0  0  0  0  0  0  0  0  0  0  0  0
   16.1008   13.6232   14.7667 C   0  0  0  0  0  0  0  0  0  0  0  0
   15.1685   12.7173   13.9564 C   0  0  2  0  0  0  0  0  0  0  0  0
   15.4164   11.1698   13.9684 C   0  0  0  0  0  0  0  0  0  0  0  0
   15.8312   10.4526   15.0558 C   0  0  0  0  0  0  0  0  0  0  0  0
   15.8214    9.1094   15.0689 N   0  0  0  0  0  0  0  0  0  0  0  0
   15.4136    8.4476   13.9571 C   0  0  0  0  0  0  0  0  0  0  0  0
   15.4344    7.0555   13.8607 C   0  0  0  0  0  0  0  0  0  0  0  0
   15.9650    6.0562   15.3687 Br  0  0  0  0  0  0  0  0  0  0  0  0
   15.0857    6.3472   12.7030 C   0  0  0  0  0  0  0  0  0  0  0  0
   14.6614    7.0403   11.5964 C   0  0  0  0  0  0  0  0  0  0  0  0
   14.6017    8.4198   11.6998 C   0  0  0  0  0  0  0  0  0  0  0  0
   14.9828    9.1470   12.8403 C   0  0  0  0  0  0  0  0  0  0  0  0
   14.9829   10.4957   12.8615 N   0  0  0  0  0  0  0  0  0  0  0  0
   13.8255   13.0989   14.6351 C   0  0  0  0  0  0  0  0  0  0  0  0
   13.2716   12.9042   13.2693 C   0  0  0  0  0  0  0  0  0  0  0  0
  1  2  1  0
  2  3  1  0
  3  4  1  0
  4  5  2  0
  6  4  1  6
  6  7  1  0
  7  8  1  0
  8  9  1  0
  9 10  1  0
 10 11  1  6
 11 12  2  0
 12 13  1  0
 13 14  2  0
 14 15  1  0
 15 16  1  0
 15 17  2  0
 17 18  1  0
 18 19  2  0
 19 20  1  0
 20 21  2  0
 10 22  1  0
 22 23  1  0
 10  6  1  0
 21 11  1  0
 23  6  1  0
 20 14  1  0
M  END
>  <original ID>  (292) 
DXYTUTWUTWRDKE-ZWKOTPCHSA-N

>  <generation_date>  (292) 
None

>  <alias>  (292) 
None

>  <original SMILES>  (292) 
CCOC(=O)[C@]12CCC[C@@]1(c1cnc3c(Br)cccc3n1)CC2

>  <HIPPO ID>  (292) 
66782

>  <tags>  (292) 
[]

>  <ref_pdb>  (292) 
c0300a

>  <method>  (292) 
None

>  <ref_url>  (292) 
None

>  <inchikey>  (292) 
DXYTUTWUTWRDKE-ZWKOTPCHSA-N

>  <submitter_email>  (292) 
None

>  <ref_mols>  (292) 
c0839a,c1299a

>  <submitter_name>  (292) 
None

$$$$
YTWRPFPTRXRDNW-UHFFFAOYSA-N
     RDKit          3D

 19 21  0  0  0  0  0  0  0  0999 V2000
   14.0105    8.8718   14.7136 C   0  0  0  0  0  0  0  0  0  0  0  0
   14.4100    8.0612   13.5872 N   0  0  0  0  0  0  0  0  0  0  0  0
   14.0560    6.6317   13.7449 C   0  0  0  0  0  0  0  0  0  0  0  0
   12.6153    6.2600   13.4851 C   0  0  0  0  0  0  0  0  0  0  0  0
   12.1004    5.4892   12.4614 C   0  0  0  0  0  0  0  0  0  0  0  0
   10.6863    5.3439   12.5510 C   0  0  0  0  0  0  0  0  0  0  0  0
   10.1652    5.9828   13.6504 C   0  0  0  0  0  0  0  0  0  0  0  0
   11.3727    6.7608   14.5632 S   0  0  0  0  0  0  0  0  0  0  0  0
   14.5952    8.6340   12.3246 C   0  0  0  0  0  0  0  0  0  0  0  0
   14.6436    7.7830   11.1873 C   0  0  0  0  0  0  0  0  0  0  0  0
   14.6794    8.2231    9.8723 C   0  0  0  0  0  0  0  0  0  0  0  0
   14.7268    9.5658    9.5814 C   0  0  0  0  0  0  0  0  0  0  0  0
   14.6916   10.4636   10.6441 C   0  0  0  0  0  0  0  0  0  0  0  0
   14.6174   11.8190   10.5268 N   0  0  0  0  0  0  0  0  0  0  0  0
   14.5577   12.2503   11.7488 C   0  0  0  0  0  0  0  0  0  0  0  0
   14.4501   13.5356   12.1141 N   0  0  0  0  0  0  0  0  0  0  0  0
   14.7299   11.2361   12.6619 N   0  0  0  0  0  0  0  0  0  0  0  0
   15.1590   11.4995   14.0138 C   0  0  0  0  0  0  0  0  0  0  0  0
   14.6730   10.0245   11.9834 C   0  0  0  0  0  0  0  0  0  0  0  0
  1  2  1  0
  2  3  1  0
  3  4  1  0
  4  5  2  0
  5  6  1  0
  6  7  2  0
  7  8  1  0
  2  9  1  0
  9 10  2  0
 10 11  1  0
 11 12  2  0
 12 13  1  0
 13 14  1  0
 14 15  2  0
 15 16  1  0
 15 17  1  0
 17 18  1  0
 17 19  1  0
  8  4  1  0
 19  9  1  0
 19 13  2  0
M  END
>  <original ID>  (293) 
YTWRPFPTRXRDNW-UHFFFAOYSA-N

>  <generation_date>  (293) 
None

>  <alias>  (293) 
None

>  <original SMILES>  (293) 
CN(Cc1cccs1)c1cccc2nc(N)n(C)c12

>  <HIPPO ID>  (293) 
73775

>  <tags>  (293) 
[]

>  <ref_pdb>  (293) 
c1454a

>  <method>  (293) 
None

>  <ref_url>  (293) 
None

>  <inchikey>  (293) 
YTWRPFPTRXRDNW-UHFFFAOYSA-N

>  <submitter_email>  (293) 
None

>  <ref_mols>  (293) 
c0892a,c1203a

>  <submitter_name>  (293) 
None

$$$$
YLACBJBOFOHJTN-UHFFFAOYSA-N
     RDKit          3D

 19 21  0  0  0  0  0  0  0  0999 V2000
   14.2537    8.1948    9.5277 C   0  0  0  0  0  0  0  0  0  0  0  0
   14.5812    9.3660   10.2814 N   0  0  0  0  0  0  0  0  0  0  0  0
   14.8967   10.5828    9.7742 C   0  0  0  0  0  0  0  0  0  0  0  0
   15.3644   10.6740    8.5357 N   0  0  0  0  0  0  0  0  0  0  0  0
   14.7836   11.5318   10.6567 N   0  0  0  0  0  0  0  0  0  0  0  0
   14.6558   10.8463   11.8293 C   0  0  0  0  0  0  0  0  0  0  0  0
   14.6286   11.3627   13.1032 C   0  0  0  0  0  0  0  0  0  0  0  0
   14.7809   10.4203   14.0931 C   0  0  0  0  0  0  0  0  0  0  0  0
   14.9313   10.8816   15.3192 F   0  0  0  0  0  0  0  0  0  0  0  0
   14.8605    9.0482   13.9106 C   0  0  0  0  0  0  0  0  0  0  0  0
   14.7484    8.5005   12.6518 C   0  0  0  0  0  0  0  0  0  0  0  0
   14.9301    7.1415   12.3942 N   0  0  0  0  0  0  0  0  0  0  0  0
   14.3382    6.1916   13.3549 C   0  0  0  0  0  0  0  0  0  0  0  0
   12.8428    6.0920   13.3359 C   0  0  0  0  0  0  0  0  0  0  0  0
   12.0597    5.3827   12.4475 C   0  0  0  0  0  0  0  0  0  0  0  0
   10.6721    5.4840   12.7472 C   0  0  0  0  0  0  0  0  0  0  0  0
   10.4381    6.2717   13.8512 C   0  0  0  0  0  0  0  0  0  0  0  0
   11.8891    6.8723   14.5281 S   0  0  0  0  0  0  0  0  0  0  0  0
   14.6680    9.4618   11.6364 C   0  0  0  0  0  0  0  0  0  0  0  0
  1  2  1  0
  2  3  1  0
  3  4  1  0
  3  5  2  0
  5  6  1  0
  6  7  2  0
  7  8  1  0
  8  9  1  0
  8 10  2  0
 10 11  1  0
 11 12  1  0
 12 13  1  0
 13 14  1  0
 14 15  2  0
 15 16  1  0
 16 17  2  0
 17 18  1  0
 11 19  2  0
 19  2  1  0
 19  6  1  0
 18 14  1  0
M  END
>  <original ID>  (294) 
YLACBJBOFOHJTN-UHFFFAOYSA-N

>  <generation_date>  (294) 
None

>  <alias>  (294) 
None

>  <original SMILES>  (294) 
Cn1c(N)nc2cc(F)cc(NCc3cccs3)c21

>  <HIPPO ID>  (294) 
73777

>  <tags>  (294) 
[]

>  <ref_pdb>  (294) 
c1454a

>  <method>  (294) 
None

>  <ref_url>  (294) 
None

>  <inchikey>  (294) 
YLACBJBOFOHJTN-UHFFFAOYSA-N

>  <submitter_email>  (294) 
None

>  <ref_mols>  (294) 
c0892a,c1203a

>  <submitter_name>  (294) 
None

$$$$
DBDRMZGXJOUHBT-UHFFFAOYSA-N
     RDKit          3D

 20 22  0  0  0  0  0  0  0  0999 V2000
   13.9979    8.9697   14.8742 C   0  0  0  0  0  0  0  0  0  0  0  0
   14.4282    8.1382   13.7766 N   0  0  0  0  0  0  0  0  0  0  0  0
   14.0781    6.7059   13.9549 C   0  0  0  0  0  0  0  0  0  0  0  0
   12.6541    6.3087   13.6381 C   0  0  0  0  0  0  0  0  0  0  0  0
   12.1967    5.4851   12.6271 C   0  0  0  0  0  0  0  0  0  0  0  0
   10.7809    5.3311   12.6512 C   0  0  0  0  0  0  0  0  0  0  0  0
   10.2005    6.0170   13.6909 C   0  0  0  0  0  0  0  0  0  0  0  0
   11.3550    6.8485   14.6260 S   0  0  0  0  0  0  0  0  0  0  0  0
   14.6097    8.6852   12.5026 C   0  0  0  0  0  0  0  0  0  0  0  0
   14.6438    7.8092   11.4005 C   0  0  0  0  0  0  0  0  0  0  0  0
   14.6225    8.2280   10.0889 C   0  0  0  0  0  0  0  0  0  0  0  0
   14.4499    7.2922    9.1693 F   0  0  0  0  0  0  0  0  0  0  0  0
   14.6757    9.5474    9.7255 C   0  0  0  0  0  0  0  0  0  0  0  0
   14.6825   10.4695   10.7645 C   0  0  0  0  0  0  0  0  0  0  0  0
   14.6212   11.8235   10.6182 N   0  0  0  0  0  0  0  0  0  0  0  0
   14.5807   12.2837   11.8315 C   0  0  0  0  0  0  0  0  0  0  0  0
   14.4936   13.5778   12.1687 N   0  0  0  0  0  0  0  0  0  0  0  0
   14.7549   11.2893   12.7657 N   0  0  0  0  0  0  0  0  0  0  0  0
   15.1953   11.5705   14.1102 C   0  0  0  0  0  0  0  0  0  0  0  0
   14.6846   10.0638   12.1170 C   0  0  0  0  0  0  0  0  0  0  0  0
  1  2  1  0
  2  3  1  0
  3  4  1  0
  4  5  2  0
  5  6  1  0
  6  7  2  0
  7  8  1  0
  2  9  1  0
  9 10  2  0
 10 11  1  0
 11 12  1  0
 11 13  2  0
 13 14  1  0
 14 15  1  0
 15 16  2  0
 16 17  1  0
 16 18  1  0
 18 19  1  0
 18 20  1  0
  8  4  1  0
 20  9  1  0
 20 14  2  0
M  END
>  <original ID>  (295) 
DBDRMZGXJOUHBT-UHFFFAOYSA-N

>  <generation_date>  (295) 
None

>  <alias>  (295) 
None

>  <original SMILES>  (295) 
CN(Cc1cccs1)c1cc(F)cc2nc(N)n(C)c12

>  <HIPPO ID>  (295) 
73798

>  <tags>  (295) 
[]

>  <ref_pdb>  (295) 
c1454a

>  <method>  (295) 
None

>  <ref_url>  (295) 
None

>  <inchikey>  (295) 
DBDRMZGXJOUHBT-UHFFFAOYSA-N

>  <submitter_email>  (295) 
None

>  <ref_mols>  (295) 
c0892a,c1203a

>  <submitter_name>  (295) 
None

$$$$
BCAMWNPHZDBPJM-UHFFFAOYSA-N
     RDKit          3D

 24 26  0  0  0  0  0  0  0  0999 V2000
   14.1900    9.0775    8.8776 C   0  0  0  0  0  0  0  0  0  0  0  0
   15.3772    8.8373    9.7777 C   0  0  0  0  0  0  0  0  0  0  0  0
   15.3415    7.5742   10.6394 C   0  0  0  0  0  0  0  0  0  0  0  0
   14.5166    7.1554   11.8848 C   0  0  0  0  0  0  0  0  0  0  0  0
   15.2778    5.8365   12.2964 C   0  0  0  0  0  0  0  0  0  0  0  0
   13.1300    6.7444   11.3589 C   0  0  0  0  0  0  0  0  0  0  0  0
   14.5174    8.0265   13.1291 N   0  0  0  0  0  0  0  0  0  0  0  0
   13.9908    7.4123   14.4045 C   0  0  0  0  0  0  0  0  0  0  0  0
   12.6216    6.7424   14.4196 C   0  0  0  0  0  0  0  0  0  0  0  0
   12.2570    5.4467   14.0847 C   0  0  0  0  0  0  0  0  0  0  0  0
   10.8430    5.2488   14.0707 C   0  0  0  0  0  0  0  0  0  0  0  0
   10.1715    6.3508   14.5395 C   0  0  0  0  0  0  0  0  0  0  0  0
   11.2424    7.6089   14.9543 S   0  0  0  0  0  0  0  0  0  0  0  0
   14.6507    9.4239   13.1638 C   0  0  0  0  0  0  0  0  0  0  0  0
   14.1992   10.2305   12.1165 C   0  0  0  0  0  0  0  0  0  0  0  0
   14.1022   11.6221   12.0658 C   0  0  0  0  0  0  0  0  0  0  0  0
   14.4820   12.3483   13.1628 C   0  0  0  0  0  0  0  0  0  0  0  0
   15.0676   11.6407   14.2110 C   0  0  0  0  0  0  0  0  0  0  0  0
   15.6031   12.1839   15.3386 N   0  0  0  0  0  0  0  0  0  0  0  0
   16.1443   11.1826   15.9672 C   0  0  0  0  0  0  0  0  0  0  0  0
   16.8214   11.2806   17.1162 N   0  0  0  0  0  0  0  0  0  0  0  0
   15.9722    9.9996   15.2925 N   0  0  0  0  0  0  0  0  0  0  0  0
   16.6833    8.7826   15.5839 C   0  0  0  0  0  0  0  0  0  0  0  0
   15.1845   10.2398   14.1842 C   0  0  0  0  0  0  0  0  0  0  0  0
  1  2  1  0
  2  3  1  0
  3  4  1  0
  4  5  1  0
  4  6  1  0
  4  7  1  0
  7  8  1  0
  8  9  1  0
  9 10  2  0
 10 11  1  0
 11 12  2  0
 12 13  1  0
  7 14  1  0
 14 15  2  0
 15 16  1  0
 16 17  2  0
 17 18  1  0
 18 19  1  0
 19 20  2  0
 20 21  1  0
 20 22  1  0
 22 23  1  0
 22 24  1  0
 13  9  1  0
 24 14  1  0
 24 18  2  0
M  END
>  <original ID>  (296) 
BCAMWNPHZDBPJM-UHFFFAOYSA-N

>  <generation_date>  (296) 
None

>  <alias>  (296) 
None

>  <original SMILES>  (296) 
CCCC(C)(C)N(Cc1cccs1)c1cccc2nc(N)n(C)c12

>  <HIPPO ID>  (296) 
74674

>  <tags>  (296) 
[]

>  <ref_pdb>  (296) 
c1454a

>  <method>  (296) 
None

>  <ref_url>  (296) 
None

>  <inchikey>  (296) 
BCAMWNPHZDBPJM-UHFFFAOYSA-N

>  <submitter_email>  (296) 
None

>  <ref_mols>  (296) 
c0892a,c1203a

>  <submitter_name>  (296) 
None

$$$$
LLUWSPNAYSSKKV-QMMMGPOBSA-N
     RDKit          3D

 17 18  0  0  0  0  0  0  0  0999 V2000
   15.5401    2.6982   14.4198 C   0  0  0  0  0  0  0  0  0  0  0  0
   16.8738    2.3134   15.0384 C   0  0  1  0  0  0  0  0  0  0  0  0
   17.7585    3.5781   15.0534 C   0  0  0  0  0  0  0  0  0  0  0  0
   19.1025    3.3329   15.5857 N   0  0  0  0  0  0  0  0  0  0  0  0
   19.0717    2.4550   16.7694 C   0  0  0  0  0  0  0  0  0  0  0  0
   17.6789    2.2224   17.3845 C   0  0  0  0  0  0  0  0  0  0  0  0
   16.7455    1.7048   16.3831 N   0  0  0  0  0  0  0  0  0  0  0  0
   16.0985    0.4759   16.5061 C   0  0  0  0  0  0  0  0  0  0  0  0
   15.5896   -0.1416   15.5798 O   0  0  0  0  0  0  0  0  0  0  0  0
   16.0881   -0.2297   17.7915 C   0  0  0  0  0  0  0  0  0  0  0  0
   15.2767    0.1934   18.8402 C   0  0  0  0  0  0  0  0  0  0  0  0
   15.2715   -0.5561   20.0095 C   0  0  0  0  0  0  0  0  0  0  0  0
   14.5130   -0.1610   21.0410 F   0  0  0  0  0  0  0  0  0  0  0  0
   16.0429   -1.7095   20.1403 C   0  0  0  0  0  0  0  0  0  0  0  0
   16.8209   -2.1339   19.0685 C   0  0  0  0  0  0  0  0  0  0  0  0
   17.8497   -3.7104   19.2106 Br  0  0  0  0  0  0  0  0  0  0  0  0
   16.8495   -1.4005   17.8888 C   0  0  0  0  0  0  0  0  0  0  0  0
  2  1  1  1
  2  3  1  0
  3  4  1  0
  4  5  1  0
  5  6  1  0
  6  7  1  0
  7  8  1  0
  8  9  2  0
  8 10  1  0
 10 11  2  0
 11 12  1  0
 12 13  1  0
 12 14  2  0
 14 15  1  0
 15 16  1  0
 15 17  2  0
  7  2  1  0
 17 10  1  0
M  END
>  <original ID>  (297) 
LLUWSPNAYSSKKV-QMMMGPOBSA-N

>  <generation_date>  (297) 
None

>  <alias>  (297) 
None

>  <original SMILES>  (297) 
C[C@H]1CNCCN1C(=O)c1cc(F)cc(Br)c1

>  <HIPPO ID>  (297) 
78019

>  <tags>  (297) 
[]

>  <ref_pdb>  (297) 
c0300a

>  <method>  (297) 
None

>  <ref_url>  (297) 
None

>  <inchikey>  (297) 
LLUWSPNAYSSKKV-QMMMGPOBSA-N

>  <submitter_email>  (297) 
None

>  <ref_mols>  (297) 
c0398a,c0585a

>  <submitter_name>  (297) 
None

$$$$
LLUWSPNAYSSKKV-QMMMGPOBSA-N
     RDKit          3D

 17 18  0  0  0  0  0  0  0  0999 V2000
   15.5678    2.6762   14.3974 C   0  0  0  0  0  0  0  0  0  0  0  0
   16.8912    2.3337   15.0642 C   0  0  1  0  0  0  0  0  0  0  0  0
   17.7340    3.6278   15.1011 C   0  0  0  0  0  0  0  0  0  0  0  0
   19.0596    3.4465   15.7009 N   0  0  0  0  0  0  0  0  0  0  0  0
   19.0104    2.5780   16.8903 C   0  0  0  0  0  0  0  0  0  0  0  0
   17.6032    2.2892   17.4435 C   0  0  0  0  0  0  0  0  0  0  0  0
   16.7329    1.7305   16.4083 N   0  0  0  0  0  0  0  0  0  0  0  0
   16.1013    0.4927   16.5210 C   0  0  0  0  0  0  0  0  0  0  0  0
   15.6140   -0.1310   15.5872 O   0  0  0  0  0  0  0  0  0  0  0  0
   16.0839   -0.2172   17.8039 C   0  0  0  0  0  0  0  0  0  0  0  0
   15.2678    0.2000   18.8511 C   0  0  0  0  0  0  0  0  0  0  0  0
   15.2621   -0.5528   20.0182 C   0  0  0  0  0  0  0  0  0  0  0  0
   14.5021   -0.1608   21.0497 F   0  0  0  0  0  0  0  0  0  0  0  0
   16.0353   -1.7053   20.1473 C   0  0  0  0  0  0  0  0  0  0  0  0
   16.8162   -2.1254   19.0760 C   0  0  0  0  0  0  0  0  0  0  0  0
   17.8454   -3.7020   19.2142 Br  0  0  0  0  0  0  0  0  0  0  0  0
   16.8472   -1.3871   17.8996 C   0  0  0  0  0  0  0  0  0  0  0  0
  2  1  1  1
  2  3  1  0
  3  4  1  0
  4  5  1  0
  5  6  1  0
  6  7  1  0
  7  8  1  0
  8  9  2  0
  8 10  1  0
 10 11  2  0
 11 12  1  0
 12 13  1  0
 12 14  2  0
 14 15  1  0
 15 16  1  0
 15 17  2  0
  7  2  1  0
 17 10  1  0
M  END
>  <original ID>  (298) 
LLUWSPNAYSSKKV-QMMMGPOBSA-N

>  <generation_date>  (298) 
None

>  <alias>  (298) 
None

>  <original SMILES>  (298) 
C[C@H]1CNCCN1C(=O)c1cc(F)cc(Br)c1

>  <HIPPO ID>  (298) 
78020

>  <tags>  (298) 
[]

>  <ref_pdb>  (298) 
c0300a

>  <method>  (298) 
None

>  <ref_url>  (298) 
None

>  <inchikey>  (298) 
LLUWSPNAYSSKKV-QMMMGPOBSA-N

>  <submitter_email>  (298) 
None

>  <ref_mols>  (298) 
c0398a,c0585a

>  <submitter_name>  (298) 
None

$$$$
CAUDTRZJJYAMAA-SECBINFHSA-N
     RDKit          3D

 17 18  0  0  0  0  0  0  0  0999 V2000
   14.6030    1.2568   18.9673 C   0  0  0  0  0  0  0  0  0  0  0  0
   15.5007    0.0576   18.9822 C   0  0  0  0  0  0  0  0  0  0  0  0
   15.5610   -0.7567   20.1126 C   0  0  0  0  0  0  0  0  0  0  0  0
   14.8735   -0.4197   21.2141 F   0  0  0  0  0  0  0  0  0  0  0  0
   16.3182   -1.9272   20.1341 C   0  0  0  0  0  0  0  0  0  0  0  0
   17.0300   -2.3177   19.0026 C   0  0  0  0  0  0  0  0  0  0  0  0
   16.9906   -1.5236   17.8594 C   0  0  0  0  0  0  0  0  0  0  0  0
   16.2484   -0.3343   17.8597 C   0  0  0  0  0  0  0  0  0  0  0  0
   16.1557    0.4123   16.5927 C   0  0  0  0  0  0  0  0  0  0  0  0
   15.5050   -0.1114   15.7005 O   0  0  0  0  0  0  0  0  0  0  0  0
   16.8136    1.6296   16.4897 N   0  0  0  0  0  0  0  0  0  0  0  0
   18.1214    1.8690   17.0964 C   0  0  0  0  0  0  0  0  0  0  0  0
   19.0558    2.6177   16.1189 C   0  0  0  0  0  0  0  0  0  0  0  0
   18.5205    3.8795   15.5556 N   0  0  0  0  0  0  0  0  0  0  0  0
   17.0807    4.0162   15.8338 C   0  0  0  0  0  0  0  0  0  0  0  0
   16.2865    2.7060   15.6340 C   0  0  1  0  0  0  0  0  0  0  0  0
   16.2488    2.3640   14.1536 C   0  0  0  0  0  0  0  0  0  0  0  0
  1  2  1  0
  2  3  2  0
  3  4  1  0
  3  5  1  0
  5  6  2  0
  6  7  1  0
  7  8  2  0
  8  9  1  0
  9 10  2  0
  9 11  1  0
 11 12  1  0
 12 13  1  0
 13 14  1  0
 14 15  1  0
 15 16  1  0
 16 17  1  6
  8  2  1  0
 16 11  1  0
M  END
>  <original ID>  (299) 
CAUDTRZJJYAMAA-SECBINFHSA-N

>  <generation_date>  (299) 
None

>  <alias>  (299) 
None

>  <original SMILES>  (299) 
Cc1c(F)cccc1C(=O)N1CCNC[C@H]1C

>  <HIPPO ID>  (299) 
78050

>  <tags>  (299) 
[]

>  <ref_pdb>  (299) 
c0300a

>  <method>  (299) 
None

>  <ref_url>  (299) 
None

>  <inchikey>  (299) 
CAUDTRZJJYAMAA-SECBINFHSA-N

>  <submitter_email>  (299) 
None

>  <ref_mols>  (299) 
c0398a,c0585a

>  <submitter_name>  (299) 
None

$$$$
CAUDTRZJJYAMAA-SECBINFHSA-N
     RDKit          3D

 17 18  0  0  0  0  0  0  0  0999 V2000
   14.5824    1.3073   18.9846 C   0  0  0  0  0  0  0  0  0  0  0  0
   15.4684    0.1009   19.0070 C   0  0  0  0  0  0  0  0  0  0  0  0
   15.5221   -0.7087   20.1416 C   0  0  0  0  0  0  0  0  0  0  0  0
   14.8348   -0.3625   21.2404 F   0  0  0  0  0  0  0  0  0  0  0  0
   16.2701   -1.8852   20.1709 C   0  0  0  0  0  0  0  0  0  0  0  0
   16.9774   -2.2890   19.0422 C   0  0  0  0  0  0  0  0  0  0  0  0
   16.9441   -1.4998   17.8959 C   0  0  0  0  0  0  0  0  0  0  0  0
   16.2133   -0.3018   17.8889 C   0  0  0  0  0  0  0  0  0  0  0  0
   16.1449    0.4377   16.6155 C   0  0  0  0  0  0  0  0  0  0  0  0
   15.5493   -0.0971   15.6932 O   0  0  0  0  0  0  0  0  0  0  0  0
   16.8381    1.6529   16.5400 N   0  0  0  0  0  0  0  0  0  0  0  0
   18.2946    1.5210   16.4554 C   0  0  0  0  0  0  0  0  0  0  0  0
   19.0414    2.8679   16.4753 C   0  0  0  0  0  0  0  0  0  0  0  0
   18.4942    3.8774   15.5469 N   0  0  0  0  0  0  0  0  0  0  0  0
   17.0577    4.0323   15.8484 C   0  0  0  0  0  0  0  0  0  0  0  0
   16.2738    2.7112   15.6788 C   0  0  1  0  0  0  0  0  0  0  0  0
   16.1865    2.3699   14.1948 C   0  0  0  0  0  0  0  0  0  0  0  0
  1  2  1  0
  2  3  2  0
  3  4  1  0
  3  5  1  0
  5  6  2  0
  6  7  1  0
  7  8  2  0
  8  9  1  0
  9 10  2  0
  9 11  1  0
 11 12  1  0
 12 13  1  0
 13 14  1  0
 14 15  1  0
 15 16  1  0
 16 17  1  6
  8  2  1  0
 16 11  1  0
M  END
>  <original ID>  (300) 
CAUDTRZJJYAMAA-SECBINFHSA-N

>  <generation_date>  (300) 
None

>  <alias>  (300) 
None

>  <original SMILES>  (300) 
Cc1c(F)cccc1C(=O)N1CCNC[C@H]1C

>  <HIPPO ID>  (300) 
78051

>  <tags>  (300) 
[]

>  <ref_pdb>  (300) 
c0300a

>  <method>  (300) 
None

>  <ref_url>  (300) 
None

>  <inchikey>  (300) 
CAUDTRZJJYAMAA-SECBINFHSA-N

>  <submitter_email>  (300) 
None

>  <ref_mols>  (300) 
c0398a,c0585a

>  <submitter_name>  (300) 
None

$$$$
IUKJAQYQDJSHND-SNVBAGLBSA-N
     RDKit          3D

 17 18  0  0  0  0  0  0  0  0999 V2000
   16.6464   -2.4921   21.4388 C   0  0  0  0  0  0  0  0  0  0  0  0
   16.4389   -1.7781   20.1398 C   0  0  0  0  0  0  0  0  0  0  0  0
   17.1644   -2.1743   19.0085 C   0  0  0  0  0  0  0  0  0  0  0  0
   17.0646   -1.4462   17.8268 C   0  0  0  0  0  0  0  0  0  0  0  0
   16.2618   -0.3033   17.7892 C   0  0  0  0  0  0  0  0  0  0  0  0
   16.1602    0.4490   16.5341 C   0  0  0  0  0  0  0  0  0  0  0  0
   15.5295   -0.0702   15.6286 O   0  0  0  0  0  0  0  0  0  0  0  0
   16.8509    1.6642   16.4728 N   0  0  0  0  0  0  0  0  0  0  0  0
   18.3036    1.5394   16.3293 C   0  0  0  0  0  0  0  0  0  0  0  0
   19.0461    2.8852   16.4054 C   0  0  0  0  0  0  0  0  0  0  0  0
   18.4634    3.9558   15.5766 N   0  0  0  0  0  0  0  0  0  0  0  0
   17.0279    4.0670   15.8861 C   0  0  0  0  0  0  0  0  0  0  0  0
   16.2729    2.7405   15.6468 C   0  0  1  0  0  0  0  0  0  0  0  0
   16.2132    2.4554   14.1497 C   0  0  0  0  0  0  0  0  0  0  0  0
   15.4959    0.0801   18.8873 C   0  0  0  0  0  0  0  0  0  0  0  0
   15.5923   -0.6653   20.0542 C   0  0  0  0  0  0  0  0  0  0  0  0
   14.8694   -0.2926   21.1217 F   0  0  0  0  0  0  0  0  0  0  0  0
  1  2  1  0
  2  3  2  0
  3  4  1  0
  4  5  2  0
  5  6  1  0
  6  7  2  0
  6  8  1  0
  8  9  1  0
  9 10  1  0
 10 11  1  0
 11 12  1  0
 12 13  1  0
 13 14  1  6
  5 15  1  0
 15 16  2  0
 16 17  1  0
 16  2  1  0
 13  8  1  0
M  END
>  <original ID>  (301) 
IUKJAQYQDJSHND-SNVBAGLBSA-N

>  <generation_date>  (301) 
None

>  <alias>  (301) 
None

>  <original SMILES>  (301) 
Cc1ccc(C(=O)N2CCNC[C@H]2C)cc1F

>  <HIPPO ID>  (301) 
78068

>  <tags>  (301) 
[]

>  <ref_pdb>  (301) 
c0300a

>  <method>  (301) 
None

>  <ref_url>  (301) 
None

>  <inchikey>  (301) 
IUKJAQYQDJSHND-SNVBAGLBSA-N

>  <submitter_email>  (301) 
None

>  <ref_mols>  (301) 
c0398a,c0585a

>  <submitter_name>  (301) 
None

$$$$
IUKJAQYQDJSHND-SNVBAGLBSA-N
     RDKit          3D

 17 18  0  0  0  0  0  0  0  0999 V2000
   16.6763   -2.5357   21.4076 C   0  0  0  0  0  0  0  0  0  0  0  0
   16.4675   -1.8085   20.1163 C   0  0  0  0  0  0  0  0  0  0  0  0
   17.2038   -2.1829   18.9834 C   0  0  0  0  0  0  0  0  0  0  0  0
   17.0994   -1.4455   17.8073 C   0  0  0  0  0  0  0  0  0  0  0  0
   16.2773   -0.3176   17.7784 C   0  0  0  0  0  0  0  0  0  0  0  0
   16.1601    0.4523   16.5365 C   0  0  0  0  0  0  0  0  0  0  0  0
   15.5117   -0.0665   15.6413 O   0  0  0  0  0  0  0  0  0  0  0  0
   16.7941    1.6847   16.4624 N   0  0  0  0  0  0  0  0  0  0  0  0
   18.0491    1.9774   17.1535 C   0  0  0  0  0  0  0  0  0  0  0  0
   19.0148    2.7689   16.2430 C   0  0  0  0  0  0  0  0  0  0  0  0
   18.4639    4.0000   15.6313 N   0  0  0  0  0  0  0  0  0  0  0  0
   17.0072    4.0849   15.8302 C   0  0  0  0  0  0  0  0  0  0  0  0
   16.2716    2.7478   15.5882 C   0  0  1  0  0  0  0  0  0  0  0  0
   16.3208    2.4066   14.1084 C   0  0  0  0  0  0  0  0  0  0  0  0
   15.5008    0.0438   18.8778 C   0  0  0  0  0  0  0  0  0  0  0  0
   15.6060   -0.7072   20.0392 C   0  0  0  0  0  0  0  0  0  0  0  0
   14.8791   -0.3487   21.1086 F   0  0  0  0  0  0  0  0  0  0  0  0
  1  2  1  0
  2  3  2  0
  3  4  1  0
  4  5  2  0
  5  6  1  0
  6  7  2  0
  6  8  1  0
  8  9  1  0
  9 10  1  0
 10 11  1  0
 11 12  1  0
 12 13  1  0
 13 14  1  6
  5 15  1  0
 15 16  2  0
 16 17  1  0
 16  2  1  0
 13  8  1  0
M  END
>  <original ID>  (302) 
IUKJAQYQDJSHND-SNVBAGLBSA-N

>  <generation_date>  (302) 
None

>  <alias>  (302) 
None

>  <original SMILES>  (302) 
Cc1ccc(C(=O)N2CCNC[C@H]2C)cc1F

>  <HIPPO ID>  (302) 
78069

>  <tags>  (302) 
[]

>  <ref_pdb>  (302) 
c0300a

>  <method>  (302) 
None

>  <ref_url>  (302) 
None

>  <inchikey>  (302) 
IUKJAQYQDJSHND-SNVBAGLBSA-N

>  <submitter_email>  (302) 
None

>  <ref_mols>  (302) 
c0398a,c0585a

>  <submitter_name>  (302) 
None

$$$$
QCDLJNBBUCITTE-MRVPVSSYSA-N
     RDKit          3D

 17 18  0  0  0  0  0  0  0  0999 V2000
   16.2338    2.4607   14.1947 C   0  0  0  0  0  0  0  0  0  0  0  0
   16.2766    2.7610   15.6910 C   0  0  2  0  0  0  0  0  0  0  0  0
   17.0491    4.0778   15.9279 C   0  0  0  0  0  0  0  0  0  0  0  0
   18.4898    3.9428   15.6465 N   0  0  0  0  0  0  0  0  0  0  0  0
   19.0399    2.8667   16.4913 C   0  0  0  0  0  0  0  0  0  0  0  0
   18.2766    1.5324   16.4035 C   0  0  0  0  0  0  0  0  0  0  0  0
   16.8267    1.6860   16.5391 N   0  0  0  0  0  0  0  0  0  0  0  0
   16.1150    0.4835   16.5920 C   0  0  0  0  0  0  0  0  0  0  0  0
   15.5726   -0.0657   15.6455 O   0  0  0  0  0  0  0  0  0  0  0  0
   16.1367   -0.2544   17.8551 C   0  0  0  0  0  0  0  0  0  0  0  0
   16.8063   -1.4865   17.8962 C   0  0  0  0  0  0  0  0  0  0  0  0
   16.7862   -2.2476   19.0630 C   0  0  0  0  0  0  0  0  0  0  0  0
   16.0780   -1.7855   20.1712 C   0  0  0  0  0  0  0  0  0  0  0  0
   15.3832   -0.5773   20.1005 C   0  0  0  0  0  0  0  0  0  0  0  0
   14.6882   -0.1675   21.1718 F   0  0  0  0  0  0  0  0  0  0  0  0
   15.4089    0.1974   18.9481 C   0  0  0  0  0  0  0  0  0  0  0  0
   14.7341    1.3570   18.9120 F   0  0  0  0  0  0  0  0  0  0  0  0
  2  1  1  6
  2  3  1  0
  3  4  1  0
  4  5  1  0
  5  6  1  0
  6  7  1  0
  7  8  1  0
  8  9  2  0
  8 10  1  0
 10 11  2  0
 11 12  1  0
 12 13  2  0
 13 14  1  0
 14 15  1  0
 14 16  2  0
 16 17  1  0
  7  2  1  0
 16 10  1  0
M  END
>  <original ID>  (303) 
QCDLJNBBUCITTE-MRVPVSSYSA-N

>  <generation_date>  (303) 
None

>  <alias>  (303) 
None

>  <original SMILES>  (303) 
C[C@@H]1CNCCN1C(=O)c1cccc(F)c1F

>  <HIPPO ID>  (303) 
78071

>  <tags>  (303) 
[]

>  <ref_pdb>  (303) 
c0300a

>  <method>  (303) 
None

>  <ref_url>  (303) 
None

>  <inchikey>  (303) 
QCDLJNBBUCITTE-MRVPVSSYSA-N

>  <submitter_email>  (303) 
None

>  <ref_mols>  (303) 
c0398a,c0585a

>  <submitter_name>  (303) 
None

$$$$
QCDLJNBBUCITTE-MRVPVSSYSA-N
     RDKit          3D

 17 18  0  0  0  0  0  0  0  0999 V2000
   16.2000    2.6879   14.0010 C   0  0  0  0  0  0  0  0  0  0  0  0
   16.5056    2.9973   15.4583 C   0  0  2  0  0  0  0  0  0  0  0  0
   17.6050    4.0562   15.6379 C   0  0  0  0  0  0  0  0  0  0  0  0
   18.9640    3.6343   15.2760 N   0  0  0  0  0  0  0  0  0  0  0  0
   19.1335    2.1751   15.3416 C   0  0  0  0  0  0  0  0  0  0  0  0
   18.2326    1.4386   16.3500 C   0  0  0  0  0  0  0  0  0  0  0  0
   16.8120    1.7652   16.2176 N   0  0  0  0  0  0  0  0  0  0  0  0
   15.8441    1.3635   17.1459 C   0  0  0  0  0  0  0  0  0  0  0  0
   14.8598    2.0651   17.3565 O   0  0  0  0  0  0  0  0  0  0  0  0
   15.9862    0.1601   17.9883 C   0  0  0  0  0  0  0  0  0  0  0  0
   16.5689   -1.0319   17.5459 C   0  0  0  0  0  0  0  0  0  0  0  0
   16.6951   -2.1202   18.4174 C   0  0  0  0  0  0  0  0  0  0  0  0
   16.2026   -2.0350   19.7186 C   0  0  0  0  0  0  0  0  0  0  0  0
   15.5700   -0.8691   20.1302 C   0  0  0  0  0  0  0  0  0  0  0  0
   15.0976   -0.7750   21.3800 F   0  0  0  0  0  0  0  0  0  0  0  0
   15.4493    0.2154   19.2768 C   0  0  0  0  0  0  0  0  0  0  0  0
   14.8421    1.3190   19.7410 F   0  0  0  0  0  0  0  0  0  0  0  0
  2  1  1  6
  2  3  1  0
  3  4  1  0
  4  5  1  0
  5  6  1  0
  6  7  1  0
  7  8  1  0
  8  9  2  0
  8 10  1  0
 10 11  2  0
 11 12  1  0
 12 13  2  0
 13 14  1  0
 14 15  1  0
 14 16  2  0
 16 17  1  0
  7  2  1  0
 16 10  1  0
M  END
>  <original ID>  (304) 
QCDLJNBBUCITTE-MRVPVSSYSA-N

>  <generation_date>  (304) 
None

>  <alias>  (304) 
None

>  <original SMILES>  (304) 
C[C@@H]1CNCCN1C(=O)c1cccc(F)c1F

>  <HIPPO ID>  (304) 
78072

>  <tags>  (304) 
[]

>  <ref_pdb>  (304) 
c0300a

>  <method>  (304) 
None

>  <ref_url>  (304) 
None

>  <inchikey>  (304) 
QCDLJNBBUCITTE-MRVPVSSYSA-N

>  <submitter_email>  (304) 
None

>  <ref_mols>  (304) 
c0398a,c0585a

>  <submitter_name>  (304) 
None

$$$$
ZTULWIUGXBWYME-QMMMGPOBSA-N
     RDKit          3D

 17 18  0  0  0  0  0  0  0  0999 V2000
   15.5498    2.6560   14.4287 C   0  0  0  0  0  0  0  0  0  0  0  0
   16.8783    2.2860   15.0678 C   0  0  1  0  0  0  0  0  0  0  0  0
   17.7371    3.5693   15.1116 C   0  0  0  0  0  0  0  0  0  0  0  0
   19.0805    3.3611   15.6595 N   0  0  0  0  0  0  0  0  0  0  0  0
   19.0849    2.3623   16.7409 C   0  0  0  0  0  0  0  0  0  0  0  0
   17.7150    2.1209   17.3983 C   0  0  0  0  0  0  0  0  0  0  0  0
   16.7397    1.6624   16.4064 N   0  0  0  0  0  0  0  0  0  0  0  0
   16.0811    0.4367   16.5196 C   0  0  0  0  0  0  0  0  0  0  0  0
   15.5808   -0.1755   15.5847 O   0  0  0  0  0  0  0  0  0  0  0  0
   16.0341   -0.2605   17.8110 C   0  0  0  0  0  0  0  0  0  0  0  0
   16.7276   -1.4756   17.9194 C   0  0  0  0  0  0  0  0  0  0  0  0
   16.6524   -2.2242   19.0909 C   0  0  0  0  0  0  0  0  0  0  0  0
   17.4170   -3.3881   19.2452 N   0  0  0  0  0  0  0  0  0  0  0  0
   15.9663   -1.6860   20.1785 C   0  0  0  0  0  0  0  0  0  0  0  0
   15.2493   -0.4974   20.0437 C   0  0  0  0  0  0  0  0  0  0  0  0
   14.5372   -0.0496   21.0871 F   0  0  0  0  0  0  0  0  0  0  0  0
   15.2625    0.2250   18.8609 C   0  0  0  0  0  0  0  0  0  0  0  0
  2  1  1  1
  2  3  1  0
  3  4  1  0
  4  5  1  0
  5  6  1  0
  6  7  1  0
  7  8  1  0
  8  9  2  0
  8 10  1  0
 10 11  2  0
 11 12  1  0
 12 13  1  0
 12 14  2  0
 14 15  1  0
 15 16  1  0
 15 17  2  0
  7  2  1  0
 17 10  1  0
M  END
>  <original ID>  (305) 
ZTULWIUGXBWYME-QMMMGPOBSA-N

>  <generation_date>  (305) 
None

>  <alias>  (305) 
None

>  <original SMILES>  (305) 
C[C@H]1CNCCN1C(=O)c1cc(N)cc(F)c1

>  <HIPPO ID>  (305) 
78081

>  <tags>  (305) 
[]

>  <ref_pdb>  (305) 
c0300a

>  <method>  (305) 
None

>  <ref_url>  (305) 
None

>  <inchikey>  (305) 
ZTULWIUGXBWYME-QMMMGPOBSA-N

>  <submitter_email>  (305) 
None

>  <ref_mols>  (305) 
c0398a,c0585a

>  <submitter_name>  (305) 
None

$$$$
ZTULWIUGXBWYME-MRVPVSSYSA-N
     RDKit          3D

 17 18  0  0  0  0  0  0  0  0999 V2000
   16.2189    2.4061   14.1550 C   0  0  0  0  0  0  0  0  0  0  0  0
   16.2684    2.7437   15.6413 C   0  0  2  0  0  0  0  0  0  0  0  0
   17.0253    4.0767   15.8350 C   0  0  0  0  0  0  0  0  0  0  0  0
   18.4712    3.9473   15.5711 N   0  0  0  0  0  0  0  0  0  0  0  0
   19.0129    2.9447   16.5094 C   0  0  0  0  0  0  0  0  0  0  0  0
   18.2923    1.5846   16.4605 C   0  0  0  0  0  0  0  0  0  0  0  0
   16.8313    1.6897   16.5083 N   0  0  0  0  0  0  0  0  0  0  0  0
   16.1586    0.4644   16.5613 C   0  0  0  0  0  0  0  0  0  0  0  0
   15.5555   -0.0636   15.6406 O   0  0  0  0  0  0  0  0  0  0  0  0
   16.2301   -0.2853   17.8200 C   0  0  0  0  0  0  0  0  0  0  0  0
   16.9215   -1.5032   17.8419 C   0  0  0  0  0  0  0  0  0  0  0  0
   16.9306   -2.2815   18.9977 C   0  0  0  0  0  0  0  0  0  0  0  0
   17.5261   -3.5484   18.9904 N   0  0  0  0  0  0  0  0  0  0  0  0
   16.1546   -1.8692   20.0831 C   0  0  0  0  0  0  0  0  0  0  0  0
   15.4536   -0.6637   20.0371 C   0  0  0  0  0  0  0  0  0  0  0  0
   14.7240   -0.2881   21.0971 F   0  0  0  0  0  0  0  0  0  0  0  0
   15.4884    0.1462   18.9147 C   0  0  0  0  0  0  0  0  0  0  0  0
  2  1  1  6
  2  3  1  0
  3  4  1  0
  4  5  1  0
  5  6  1  0
  6  7  1  0
  7  8  1  0
  8  9  2  0
  8 10  1  0
 10 11  2  0
 11 12  1  0
 12 13  1  0
 12 14  2  0
 14 15  1  0
 15 16  1  0
 15 17  2  0
  7  2  1  0
 17 10  1  0
M  END
>  <original ID>  (306) 
ZTULWIUGXBWYME-MRVPVSSYSA-N

>  <generation_date>  (306) 
None

>  <alias>  (306) 
None

>  <original SMILES>  (306) 
C[C@@H]1CNCCN1C(=O)c1cc(N)cc(F)c1

>  <HIPPO ID>  (306) 
78082

>  <tags>  (306) 
[]

>  <ref_pdb>  (306) 
c0300a

>  <method>  (306) 
None

>  <ref_url>  (306) 
None

>  <inchikey>  (306) 
ZTULWIUGXBWYME-MRVPVSSYSA-N

>  <submitter_email>  (306) 
None

>  <ref_mols>  (306) 
c0398a,c0585a

>  <submitter_name>  (306) 
None

$$$$
GNZIIRHFSRJEJV-UHFFFAOYSA-N
     RDKit          3D

 17 18  0  0  0  0  0  0  0  0999 V2000
   16.9453    2.4858   13.9662 C   0  0  0  0  0  0  0  0  0  0  0  0
   16.6271    3.0267   15.3576 C   0  0  0  0  0  0  0  0  0  0  0  0
   15.1893    3.5530   15.3364 C   0  0  0  0  0  0  0  0  0  0  0  0
   17.5403    4.2661   15.6201 C   0  0  0  0  0  0  0  0  0  0  0  0
   18.9764    3.9613   15.6897 N   0  0  0  0  0  0  0  0  0  0  0  0
   19.2220    2.6755   16.3661 C   0  0  0  0  0  0  0  0  0  0  0  0
   18.0524    2.1681   17.2346 C   0  0  0  0  0  0  0  0  0  0  0  0
   16.8286    2.0079   16.4457 N   0  0  0  0  0  0  0  0  0  0  0  0
   16.1747    0.7747   16.4302 C   0  0  0  0  0  0  0  0  0  0  0  0
   15.6242    0.2969   15.4511 O   0  0  0  0  0  0  0  0  0  0  0  0
   16.1710   -0.0586   17.6501 C   0  0  0  0  0  0  0  0  0  0  0  0
   16.8716   -1.2725   17.6421 C   0  0  0  0  0  0  0  0  0  0  0  0
   16.8373   -2.1031   18.7622 C   0  0  0  0  0  0  0  0  0  0  0  0
   16.0862   -1.7277   19.8750 C   0  0  0  0  0  0  0  0  0  0  0  0
   15.3664   -0.5342   19.8552 C   0  0  0  0  0  0  0  0  0  0  0  0
   14.6314   -0.1997   20.9259 F   0  0  0  0  0  0  0  0  0  0  0  0
   15.4011    0.3121   18.7525 C   0  0  0  0  0  0  0  0  0  0  0  0
  1  2  1  0
  2  3  1  0
  2  4  1  0
  4  5  1  0
  5  6  1  0
  6  7  1  0
  7  8  1  0
  8  9  1  0
  9 10  2  0
  9 11  1  0
 11 12  2  0
 12 13  1  0
 13 14  2  0
 14 15  1  0
 15 16  1  0
 15 17  2  0
  8  2  1  0
 17 11  1  0
M  END
>  <original ID>  (307) 
GNZIIRHFSRJEJV-UHFFFAOYSA-N

>  <generation_date>  (307) 
None

>  <alias>  (307) 
None

>  <original SMILES>  (307) 
CC1(C)CNCCN1C(=O)c1cccc(F)c1

>  <HIPPO ID>  (307) 
78111

>  <tags>  (307) 
[]

>  <ref_pdb>  (307) 
c0300a

>  <method>  (307) 
None

>  <ref_url>  (307) 
None

>  <inchikey>  (307) 
GNZIIRHFSRJEJV-UHFFFAOYSA-N

>  <submitter_email>  (307) 
None

>  <ref_mols>  (307) 
c0398a,c0585a

>  <submitter_name>  (307) 
None

$$$$
FGVBXLLGZVOPHX-QMMMGPOBSA-N
     RDKit          3D

 17 18  0  0  0  0  0  0  0  0999 V2000
   15.5635    2.6046   14.3758 C   0  0  0  0  0  0  0  0  0  0  0  0
   16.9405    2.3227   14.9649 C   0  0  1  0  0  0  0  0  0  0  0  0
   17.6700    3.6889   14.9755 C   0  0  0  0  0  0  0  0  0  0  0  0
   19.0038    3.6175   15.5678 N   0  0  0  0  0  0  0  0  0  0  0  0
   18.8794    3.1167   16.9364 C   0  0  0  0  0  0  0  0  0  0  0  0
   18.1842    1.7541   17.0271 C   0  0  0  0  0  0  0  0  0  0  0  0
   16.9105    1.6767   16.3042 N   0  0  0  0  0  0  0  0  0  0  0  0
   16.1728    0.4831   16.4440 C   0  0  0  0  0  0  0  0  0  0  0  0
   15.5475   -0.0809   15.5590 O   0  0  0  0  0  0  0  0  0  0  0  0
   16.2147   -0.2406   17.7219 C   0  0  0  0  0  0  0  0  0  0  0  0
   17.0850   -1.3328   17.8307 C   0  0  0  0  0  0  0  0  0  0  0  0
   17.1854   -2.0133   19.0398 C   0  0  0  0  0  0  0  0  0  0  0  0
   16.4031   -1.6042   20.1197 C   0  0  0  0  0  0  0  0  0  0  0  0
   16.7048   -2.4023   21.8042 Br  0  0  0  0  0  0  0  0  0  0  0  0
   15.4764   -0.5684   19.9722 C   0  0  0  0  0  0  0  0  0  0  0  0
   14.6977   -0.2002   21.0017 F   0  0  0  0  0  0  0  0  0  0  0  0
   15.3733    0.1239   18.7714 C   0  0  0  0  0  0  0  0  0  0  0  0
  2  1  1  1
  2  3  1  0
  3  4  1  0
  4  5  1  0
  5  6  1  0
  6  7  1  0
  7  8  1  0
  8  9  2  0
  8 10  1  0
 10 11  2  0
 11 12  1  0
 12 13  2  0
 13 14  1  0
 13 15  1  0
 15 16  1  0
 15 17  2  0
  7  2  1  0
 17 10  1  0
M  END
>  <original ID>  (308) 
FGVBXLLGZVOPHX-QMMMGPOBSA-N

>  <generation_date>  (308) 
None

>  <alias>  (308) 
None

>  <original SMILES>  (308) 
C[C@H]1CNCCN1C(=O)c1ccc(Br)c(F)c1

>  <HIPPO ID>  (308) 
78127

>  <tags>  (308) 
[]

>  <ref_pdb>  (308) 
c0300a

>  <method>  (308) 
None

>  <ref_url>  (308) 
None

>  <inchikey>  (308) 
FGVBXLLGZVOPHX-QMMMGPOBSA-N

>  <submitter_email>  (308) 
None

>  <ref_mols>  (308) 
c0398a,c0585a

>  <submitter_name>  (308) 
None

$$$$
FGVBXLLGZVOPHX-MRVPVSSYSA-N
     RDKit          3D

 17 18  0  0  0  0  0  0  0  0999 V2000
   16.1449    2.3891   14.0956 C   0  0  0  0  0  0  0  0  0  0  0  0
   16.2411    2.7140   15.5767 C   0  0  2  0  0  0  0  0  0  0  0  0
   17.0483    4.0199   15.7581 C   0  0  0  0  0  0  0  0  0  0  0  0
   18.4746    3.8839   15.4144 N   0  0  0  0  0  0  0  0  0  0  0  0
   19.0249    2.6038   15.9169 C   0  0  0  0  0  0  0  0  0  0  0  0
   18.1399    1.8519   16.9361 C   0  0  0  0  0  0  0  0  0  0  0  0
   16.7979    1.6269   16.3991 N   0  0  0  0  0  0  0  0  0  0  0  0
   16.1491    0.4057   16.5075 C   0  0  0  0  0  0  0  0  0  0  0  0
   15.4722   -0.1267   15.6430 O   0  0  0  0  0  0  0  0  0  0  0  0
   16.2769   -0.3302   17.7683 C   0  0  0  0  0  0  0  0  0  0  0  0
   17.1295   -1.4349   17.8371 C   0  0  0  0  0  0  0  0  0  0  0  0
   17.2520   -2.1257   19.0396 C   0  0  0  0  0  0  0  0  0  0  0  0
   16.5048   -1.7167   20.1466 C   0  0  0  0  0  0  0  0  0  0  0  0
   16.8238   -2.5453   21.8122 Br  0  0  0  0  0  0  0  0  0  0  0  0
   15.5941   -0.6643   20.0373 C   0  0  0  0  0  0  0  0  0  0  0  0
   14.8420   -0.2954   21.0860 F   0  0  0  0  0  0  0  0  0  0  0  0
   15.4740    0.0398   18.8483 C   0  0  0  0  0  0  0  0  0  0  0  0
  2  1  1  6
  2  3  1  0
  3  4  1  0
  4  5  1  0
  5  6  1  0
  6  7  1  0
  7  8  1  0
  8  9  2  0
  8 10  1  0
 10 11  2  0
 11 12  1  0
 12 13  2  0
 13 14  1  0
 13 15  1  0
 15 16  1  0
 15 17  2  0
  7  2  1  0
 17 10  1  0
M  END
>  <original ID>  (309) 
FGVBXLLGZVOPHX-MRVPVSSYSA-N

>  <generation_date>  (309) 
None

>  <alias>  (309) 
None

>  <original SMILES>  (309) 
C[C@@H]1CNCCN1C(=O)c1ccc(Br)c(F)c1

>  <HIPPO ID>  (309) 
78128

>  <tags>  (309) 
[]

>  <ref_pdb>  (309) 
c0300a

>  <method>  (309) 
None

>  <ref_url>  (309) 
None

>  <inchikey>  (309) 
FGVBXLLGZVOPHX-MRVPVSSYSA-N

>  <submitter_email>  (309) 
None

>  <ref_mols>  (309) 
c0398a,c0585a

>  <submitter_name>  (309) 
None

$$$$
CDMKJAMYRFDDMM-UHFFFAOYSA-N
     RDKit          3D

 18 19  0  0  0  0  0  0  0  0999 V2000
   16.3938    2.5689   13.9921 C   0  0  0  0  0  0  0  0  0  0  0  0
   16.5678    3.0947   15.4206 C   0  0  0  0  0  0  0  0  0  0  0  0
   15.3139    3.9531   15.6946 C   0  0  0  0  0  0  0  0  0  0  0  0
   17.7552    4.0971   15.5081 C   0  0  0  0  0  0  0  0  0  0  0  0
   19.0936    3.5674   15.2388 N   0  0  0  0  0  0  0  0  0  0  0  0
   19.2097    2.1428   15.5548 C   0  0  0  0  0  0  0  0  0  0  0  0
   18.2353    1.6299   16.6212 C   0  0  0  0  0  0  0  0  0  0  0  0
   16.8245    1.9232   16.3434 N   0  0  0  0  0  0  0  0  0  0  0  0
   15.8177    1.4241   17.1771 C   0  0  0  0  0  0  0  0  0  0  0  0
   14.7687    2.0255   17.3564 O   0  0  0  0  0  0  0  0  0  0  0  0
   15.9818    0.2094   17.9984 C   0  0  0  0  0  0  0  0  0  0  0  0
   16.5589   -0.9723   17.5217 C   0  0  0  0  0  0  0  0  0  0  0  0
   16.6885   -2.0805   18.3669 C   0  0  0  0  0  0  0  0  0  0  0  0
   16.2024   -2.0252   19.6730 C   0  0  0  0  0  0  0  0  0  0  0  0
   15.5749   -0.8678   20.1166 C   0  0  0  0  0  0  0  0  0  0  0  0
   15.1102   -0.8020   21.3709 F   0  0  0  0  0  0  0  0  0  0  0  0
   15.4517    0.2363   19.2899 C   0  0  0  0  0  0  0  0  0  0  0  0
   14.8475    1.3310   19.7781 F   0  0  0  0  0  0  0  0  0  0  0  0
  1  2  1  0
  2  3  1  0
  2  4  1  0
  4  5  1  0
  5  6  1  0
  6  7  1  0
  7  8  1  0
  8  9  1  0
  9 10  2  0
  9 11  1  0
 11 12  2  0
 12 13  1  0
 13 14  2  0
 14 15  1  0
 15 16  1  0
 15 17  2  0
 17 18  1  0
  8  2  1  0
 17 11  1  0
M  END
>  <original ID>  (310) 
CDMKJAMYRFDDMM-UHFFFAOYSA-N

>  <generation_date>  (310) 
None

>  <alias>  (310) 
None

>  <original SMILES>  (310) 
CC1(C)CNCCN1C(=O)c1cccc(F)c1F

>  <HIPPO ID>  (310) 
78324

>  <tags>  (310) 
[]

>  <ref_pdb>  (310) 
c0300a

>  <method>  (310) 
None

>  <ref_url>  (310) 
None

>  <inchikey>  (310) 
CDMKJAMYRFDDMM-UHFFFAOYSA-N

>  <submitter_email>  (310) 
None

>  <ref_mols>  (310) 
c0398a,c0585a

>  <submitter_name>  (310) 
None

$$$$
FXUKMUZNIGEKNX-UHFFFAOYSA-N
     RDKit          3D

 18 19  0  0  0  0  0  0  0  0999 V2000
   14.3270    1.3634   19.1936 C   0  0  0  0  0  0  0  0  0  0  0  0
   15.2854    0.2188   19.1632 C   0  0  0  0  0  0  0  0  0  0  0  0
   15.3778   -0.6100   20.2829 C   0  0  0  0  0  0  0  0  0  0  0  0
   14.6687   -0.3071   21.3796 F   0  0  0  0  0  0  0  0  0  0  0  0
   16.1938   -1.7398   20.3097 C   0  0  0  0  0  0  0  0  0  0  0  0
   16.9592   -2.0630   19.1972 C   0  0  0  0  0  0  0  0  0  0  0  0
   16.9235   -1.2269   18.0853 C   0  0  0  0  0  0  0  0  0  0  0  0
   16.1106   -0.0752   18.0741 C   0  0  0  0  0  0  0  0  0  0  0  0
   16.1520    0.7038   16.8205 C   0  0  0  0  0  0  0  0  0  0  0  0
   15.8564    0.0601   15.8179 O   0  0  0  0  0  0  0  0  0  0  0  0
   16.6564    2.0145   16.7952 N   0  0  0  0  0  0  0  0  0  0  0  0
   17.0495    2.7746   17.9876 C   0  0  0  0  0  0  0  0  0  0  0  0
   18.3483    3.5825   17.7966 C   0  0  0  0  0  0  0  0  0  0  0  0
   18.3832    4.4854   16.6340 N   0  0  0  0  0  0  0  0  0  0  0  0
   17.3379    4.1534   15.6618 C   0  0  0  0  0  0  0  0  0  0  0  0
   17.0375    2.6318   15.4878 C   0  0  0  0  0  0  0  0  0  0  0  0
   18.2995    1.9258   14.9646 C   0  0  0  0  0  0  0  0  0  0  0  0
   15.9070    2.5795   14.4469 C   0  0  0  0  0  0  0  0  0  0  0  0
  1  2  1  0
  2  3  2  0
  3  4  1  0
  3  5  1  0
  5  6  2  0
  6  7  1  0
  7  8  2  0
  8  9  1  0
  9 10  2  0
  9 11  1  0
 11 12  1  0
 12 13  1  0
 13 14  1  0
 14 15  1  0
 15 16  1  0
 16 17  1  0
 16 18  1  0
  8  2  1  0
 16 11  1  0
M  END
>  <original ID>  (311) 
FXUKMUZNIGEKNX-UHFFFAOYSA-N

>  <generation_date>  (311) 
None

>  <alias>  (311) 
None

>  <original SMILES>  (311) 
Cc1c(F)cccc1C(=O)N1CCNCC1(C)C

>  <HIPPO ID>  (311) 
78406

>  <tags>  (311) 
[]

>  <ref_pdb>  (311) 
c0300a

>  <method>  (311) 
None

>  <ref_url>  (311) 
None

>  <inchikey>  (311) 
FXUKMUZNIGEKNX-UHFFFAOYSA-N

>  <submitter_email>  (311) 
None

>  <ref_mols>  (311) 
c0398a,c0585a

>  <submitter_name>  (311) 
None

$$$$
HHVGMCNPHNMYND-UHFFFAOYSA-N
     RDKit          3D

 18 19  0  0  0  0  0  0  0  0999 V2000
   15.9302    2.5777   14.3304 C   0  0  0  0  0  0  0  0  0  0  0  0
   16.6222    2.9167   15.6556 C   0  0  0  0  0  0  0  0  0  0  0  0
   15.7099    3.7955   16.5185 C   0  0  0  0  0  0  0  0  0  0  0  0
   17.8842    3.7653   15.2907 C   0  0  0  0  0  0  0  0  0  0  0  0
   18.9783    2.9217   14.7901 N   0  0  0  0  0  0  0  0  0  0  0  0
   19.3864    1.9637   15.8382 C   0  0  0  0  0  0  0  0  0  0  0  0
   18.3754    1.7450   16.9884 C   0  0  0  0  0  0  0  0  0  0  0  0
   17.0090    1.7225   16.4749 N   0  0  0  0  0  0  0  0  0  0  0  0
   16.2523    0.5571   16.5285 C   0  0  0  0  0  0  0  0  0  0  0  0
   15.5945    0.0911   15.6121 O   0  0  0  0  0  0  0  0  0  0  0  0
   16.2523   -0.2206   17.7760 C   0  0  0  0  0  0  0  0  0  0  0  0
   15.4434    0.1918   18.8352 C   0  0  0  0  0  0  0  0  0  0  0  0
   15.3901   -0.5955   19.9773 C   0  0  0  0  0  0  0  0  0  0  0  0
   14.6236   -0.2137   21.0082 F   0  0  0  0  0  0  0  0  0  0  0  0
   16.1258   -1.7719   20.0785 C   0  0  0  0  0  0  0  0  0  0  0  0
   16.9070   -2.1813   19.0013 C   0  0  0  0  0  0  0  0  0  0  0  0
   17.9108   -3.7747   19.1328 Br  0  0  0  0  0  0  0  0  0  0  0  0
   16.9664   -1.4201   17.8373 C   0  0  0  0  0  0  0  0  0  0  0  0
  1  2  1  0
  2  3  1  0
  2  4  1  0
  4  5  1  0
  5  6  1  0
  6  7  1  0
  7  8  1  0
  8  9  1  0
  9 10  2  0
  9 11  1  0
 11 12  2  0
 12 13  1  0
 13 14  1  0
 13 15  2  0
 15 16  1  0
 16 17  1  0
 16 18  2  0
  8  2  1  0
 18 11  1  0
M  END
>  <original ID>  (312) 
HHVGMCNPHNMYND-UHFFFAOYSA-N

>  <generation_date>  (312) 
None

>  <alias>  (312) 
None

>  <original SMILES>  (312) 
CC1(C)CNCCN1C(=O)c1cc(F)cc(Br)c1

>  <HIPPO ID>  (312) 
78495

>  <tags>  (312) 
[]

>  <ref_pdb>  (312) 
c0300a

>  <method>  (312) 
None

>  <ref_url>  (312) 
None

>  <inchikey>  (312) 
HHVGMCNPHNMYND-UHFFFAOYSA-N

>  <submitter_email>  (312) 
None

>  <ref_mols>  (312) 
c0398a,c0585a

>  <submitter_name>  (312) 
None

$$$$
VZCYKBKLWHNWTD-UHFFFAOYSA-N
     RDKit          3D

 18 19  0  0  0  0  0  0  0  0999 V2000
   15.8845    2.6022   14.3565 C   0  0  0  0  0  0  0  0  0  0  0  0
   16.9797    2.6677   15.4321 C   0  0  0  0  0  0  0  0  0  0  0  0
   18.2739    1.9941   14.9438 C   0  0  0  0  0  0  0  0  0  0  0  0
   17.2374    4.1937   15.6324 C   0  0  0  0  0  0  0  0  0  0  0  0
   18.2347    4.5403   16.6473 N   0  0  0  0  0  0  0  0  0  0  0  0
   18.1728    3.6327   17.8032 C   0  0  0  0  0  0  0  0  0  0  0  0
   16.8938    2.7824   17.9341 C   0  0  0  0  0  0  0  0  0  0  0  0
   16.5703    2.0265   16.7174 N   0  0  0  0  0  0  0  0  0  0  0  0
   16.0942    0.7079   16.7124 C   0  0  0  0  0  0  0  0  0  0  0  0
   15.8267    0.0568   15.7103 O   0  0  0  0  0  0  0  0  0  0  0  0
   16.0751   -0.0701   17.9543 C   0  0  0  0  0  0  0  0  0  0  0  0
   17.0052   -1.1180   18.0446 C   0  0  0  0  0  0  0  0  0  0  0  0
   17.1181   -1.8455   19.2225 C   0  0  0  0  0  0  0  0  0  0  0  0
   16.3032   -1.5116   20.3011 C   0  0  0  0  0  0  0  0  0  0  0  0
   16.6317   -2.3456   21.9627 Br  0  0  0  0  0  0  0  0  0  0  0  0
   15.3281   -0.5167   20.1719 C   0  0  0  0  0  0  0  0  0  0  0  0
   14.5416   -0.1943   21.2092 F   0  0  0  0  0  0  0  0  0  0  0  0
   15.1902    0.2013   18.9912 C   0  0  0  0  0  0  0  0  0  0  0  0
  1  2  1  0
  2  3  1  0
  2  4  1  0
  4  5  1  0
  5  6  1  0
  6  7  1  0
  7  8  1  0
  8  9  1  0
  9 10  2  0
  9 11  1  0
 11 12  2  0
 12 13  1  0
 13 14  2  0
 14 15  1  0
 14 16  1  0
 16 17  1  0
 16 18  2  0
  8  2  1  0
 18 11  1  0
M  END
>  <original ID>  (313) 
VZCYKBKLWHNWTD-UHFFFAOYSA-N

>  <generation_date>  (313) 
None

>  <alias>  (313) 
None

>  <original SMILES>  (313) 
CC1(C)CNCCN1C(=O)c1ccc(Br)c(F)c1

>  <HIPPO ID>  (313) 
78624

>  <tags>  (313) 
[]

>  <ref_pdb>  (313) 
c0300a

>  <method>  (313) 
None

>  <ref_url>  (313) 
None

>  <inchikey>  (313) 
VZCYKBKLWHNWTD-UHFFFAOYSA-N

>  <submitter_email>  (313) 
None

>  <ref_mols>  (313) 
c0398a,c0585a

>  <submitter_name>  (313) 
None

$$$$
VBMVJUUAGOMRCV-UHFFFAOYSA-N
     RDKit          3D

 18 19  0  0  0  0  0  0  0  0999 V2000
   15.4018    2.6457   14.2889 C   0  0  0  0  0  0  0  0  0  0  0  0
   16.6618    2.7363   15.1599 C   0  0  0  0  0  0  0  0  0  0  0  0
   17.8406    2.2359   14.3309 C   0  0  0  0  0  0  0  0  0  0  0  0
   16.8700    4.2519   15.4638 C   0  0  0  0  0  0  0  0  0  0  0  0
   18.0837    4.5722   16.2309 N   0  0  0  0  0  0  0  0  0  0  0  0
   18.4432    3.4930   17.1643 C   0  0  0  0  0  0  0  0  0  0  0  0
   17.2909    2.5646   17.5865 C   0  0  0  0  0  0  0  0  0  0  0  0
   16.5711    1.9768   16.4564 N   0  0  0  0  0  0  0  0  0  0  0  0
   16.0793    0.6676   16.5102 C   0  0  0  0  0  0  0  0  0  0  0  0
   15.7001    0.0181   15.5449 O   0  0  0  0  0  0  0  0  0  0  0  0
   16.0504   -0.0743   17.7822 C   0  0  0  0  0  0  0  0  0  0  0  0
   16.8326   -1.2374   17.8758 C   0  0  0  0  0  0  0  0  0  0  0  0
   16.7735   -2.0403   19.0139 C   0  0  0  0  0  0  0  0  0  0  0  0
   17.6372   -3.1338   19.1612 N   0  0  0  0  0  0  0  0  0  0  0  0
   16.0000   -1.6075   20.0902 C   0  0  0  0  0  0  0  0  0  0  0  0
   15.2051   -0.4671   19.9741 C   0  0  0  0  0  0  0  0  0  0  0  0
   14.4367   -0.1038   21.0107 F   0  0  0  0  0  0  0  0  0  0  0  0
   15.2048    0.3024   18.8200 C   0  0  0  0  0  0  0  0  0  0  0  0
  1  2  1  0
  2  3  1  0
  2  4  1  0
  4  5  1  0
  5  6  1  0
  6  7  1  0
  7  8  1  0
  8  9  1  0
  9 10  2  0
  9 11  1  0
 11 12  2  0
 12 13  1  0
 13 14  1  0
 13 15  2  0
 15 16  1  0
 16 17  1  0
 16 18  2  0
  8  2  1  0
 18 11  1  0
M  END
>  <original ID>  (314) 
VBMVJUUAGOMRCV-UHFFFAOYSA-N

>  <generation_date>  (314) 
None

>  <alias>  (314) 
None

>  <original SMILES>  (314) 
CC1(C)CNCCN1C(=O)c1cc(N)cc(F)c1

>  <HIPPO ID>  (314) 
78759

>  <tags>  (314) 
[]

>  <ref_pdb>  (314) 
c0300a

>  <method>  (314) 
None

>  <ref_url>  (314) 
None

>  <inchikey>  (314) 
VBMVJUUAGOMRCV-UHFFFAOYSA-N

>  <submitter_email>  (314) 
None

>  <ref_mols>  (314) 
c0398a,c0585a

>  <submitter_name>  (314) 
None

$$$$
YYMRLFFOXDNHBD-SSDOTTSWSA-N
     RDKit          3D

 18 19  0  0  0  0  0  0  0  0999 V2000
   16.4465    2.4432   14.1167 C   0  0  0  0  0  0  0  0  0  0  0  0
   16.2865    2.8049   15.5851 C   0  0  2  0  0  0  0  0  0  0  0  0
   16.9898    4.1507   15.8642 C   0  0  0  0  0  0  0  0  0  0  0  0
   18.4569    4.0833   15.7636 N   0  0  0  0  0  0  0  0  0  0  0  0
   18.9826    2.8441   16.3785 C   0  0  0  0  0  0  0  0  0  0  0  0
   17.9829    2.0501   17.2486 C   0  0  0  0  0  0  0  0  0  0  0  0
   16.7523    1.7597   16.5126 N   0  0  0  0  0  0  0  0  0  0  0  0
   16.1403    0.5163   16.5372 C   0  0  0  0  0  0  0  0  0  0  0  0
   15.5445    0.0052   15.6017 O   0  0  0  0  0  0  0  0  0  0  0  0
   16.2167   -0.2870   17.7609 C   0  0  0  0  0  0  0  0  0  0  0  0
   15.5487    0.1305   18.9111 C   0  0  0  0  0  0  0  0  0  0  0  0
   15.5824   -0.6888   20.0331 C   0  0  0  0  0  0  0  0  0  0  0  0
   14.9415   -0.2920   21.1455 F   0  0  0  0  0  0  0  0  0  0  0  0
   16.2434   -1.9257   20.0247 C   0  0  0  0  0  0  0  0  0  0  0  0
   16.4429   -2.6475   21.2178 N   0  0  0  0  0  0  0  0  0  0  0  0
   16.8926   -2.3115   18.8458 C   0  0  0  0  0  0  0  0  0  0  0  0
   17.5589   -3.4762   18.7987 F   0  0  0  0  0  0  0  0  0  0  0  0
   16.8707   -1.5164   17.7101 C   0  0  0  0  0  0  0  0  0  0  0  0
  2  1  1  6
  2  3  1  0
  3  4  1  0
  4  5  1  0
  5  6  1  0
  6  7  1  0
  7  8  1  0
  8  9  2  0
  8 10  1  0
 10 11  2  0
 11 12  1  0
 12 13  1  0
 12 14  2  0
 14 15  1  0
 14 16  1  0
 16 17  1  0
 16 18  2  0
  7  2  1  0
 18 10  1  0
M  END
>  <original ID>  (315) 
YYMRLFFOXDNHBD-SSDOTTSWSA-N

>  <generation_date>  (315) 
None

>  <alias>  (315) 
None

>  <original SMILES>  (315) 
C[C@@H]1CNCCN1C(=O)c1cc(F)c(N)c(F)c1

>  <HIPPO ID>  (315) 
78767

>  <tags>  (315) 
[]

>  <ref_pdb>  (315) 
c0300a

>  <method>  (315) 
None

>  <ref_url>  (315) 
None

>  <inchikey>  (315) 
YYMRLFFOXDNHBD-SSDOTTSWSA-N

>  <submitter_email>  (315) 
None

>  <ref_mols>  (315) 
c0398a,c0585a

>  <submitter_name>  (315) 
None

$$$$
YYMRLFFOXDNHBD-SSDOTTSWSA-N
     RDKit          3D

 18 19  0  0  0  0  0  0  0  0999 V2000
   16.2444    2.4619   14.1512 C   0  0  0  0  0  0  0  0  0  0  0  0
   16.2830    2.7582   15.6474 C   0  0  2  0  0  0  0  0  0  0  0  0
   17.0516    4.0765   15.8880 C   0  0  0  0  0  0  0  0  0  0  0  0
   18.4896    3.9397   15.6031 N   0  0  0  0  0  0  0  0  0  0  0  0
   19.0434    2.8754   16.4589 C   0  0  0  0  0  0  0  0  0  0  0  0
   18.2865    1.5377   16.3805 C   0  0  0  0  0  0  0  0  0  0  0  0
   16.8315    1.6796   16.4927 N   0  0  0  0  0  0  0  0  0  0  0  0
   16.1351    0.4688   16.5330 C   0  0  0  0  0  0  0  0  0  0  0  0
   15.5347   -0.0515   15.6067 O   0  0  0  0  0  0  0  0  0  0  0  0
   16.2034   -0.2987   17.7802 C   0  0  0  0  0  0  0  0  0  0  0  0
   15.5540    0.1570   18.9249 C   0  0  0  0  0  0  0  0  0  0  0  0
   15.5863   -0.6377   20.0656 C   0  0  0  0  0  0  0  0  0  0  0  0
   14.9517   -0.2129   21.1712 F   0  0  0  0  0  0  0  0  0  0  0  0
   16.2346   -1.8818   20.0841 C   0  0  0  0  0  0  0  0  0  0  0  0
   16.4388   -2.5726   21.2958 N   0  0  0  0  0  0  0  0  0  0  0  0
   16.8648   -2.3063   18.9086 C   0  0  0  0  0  0  0  0  0  0  0  0
   17.5146   -3.4806   18.8798 F   0  0  0  0  0  0  0  0  0  0  0  0
   16.8397   -1.5390   17.7543 C   0  0  0  0  0  0  0  0  0  0  0  0
  2  1  1  6
  2  3  1  0
  3  4  1  0
  4  5  1  0
  5  6  1  0
  6  7  1  0
  7  8  1  0
  8  9  2  0
  8 10  1  0
 10 11  2  0
 11 12  1  0
 12 13  1  0
 12 14  2  0
 14 15  1  0
 14 16  1  0
 16 17  1  0
 16 18  2  0
  7  2  1  0
 18 10  1  0
M  END
>  <original ID>  (316) 
YYMRLFFOXDNHBD-SSDOTTSWSA-N

>  <generation_date>  (316) 
None

>  <alias>  (316) 
None

>  <original SMILES>  (316) 
C[C@@H]1CNCCN1C(=O)c1cc(F)c(N)c(F)c1

>  <HIPPO ID>  (316) 
78768

>  <tags>  (316) 
[]

>  <ref_pdb>  (316) 
c0300a

>  <method>  (316) 
None

>  <ref_url>  (316) 
None

>  <inchikey>  (316) 
YYMRLFFOXDNHBD-SSDOTTSWSA-N

>  <submitter_email>  (316) 
None

>  <ref_mols>  (316) 
c0398a,c0585a

>  <submitter_name>  (316) 
None

$$$$
CEDSAUVLJITBTN-UHFFFAOYSA-N
     RDKit          3D

 18 19  0  0  0  0  0  0  0  0999 V2000
   16.5585   -2.3675   21.3128 C   0  0  0  0  0  0  0  0  0  0  0  0
   16.3448   -1.6104   20.0390 C   0  0  0  0  0  0  0  0  0  0  0  0
   17.1371   -1.9104   18.9254 C   0  0  0  0  0  0  0  0  0  0  0  0
   17.0278   -1.1433   17.7699 C   0  0  0  0  0  0  0  0  0  0  0  0
   16.1331   -0.0659   17.7264 C   0  0  0  0  0  0  0  0  0  0  0  0
   16.0765    0.7061   16.4751 C   0  0  0  0  0  0  0  0  0  0  0  0
   15.6888    0.0670   15.5073 O   0  0  0  0  0  0  0  0  0  0  0  0
   16.5472    2.0232   16.4279 N   0  0  0  0  0  0  0  0  0  0  0  0
   17.2142    2.6449   17.5733 C   0  0  0  0  0  0  0  0  0  0  0  0
   18.3872    3.5518   17.1662 C   0  0  0  0  0  0  0  0  0  0  0  0
   18.0519    4.6223   16.2125 N   0  0  0  0  0  0  0  0  0  0  0  0
   16.8531    4.2982   15.4260 C   0  0  0  0  0  0  0  0  0  0  0  0
   16.6334    2.7825   15.1328 C   0  0  0  0  0  0  0  0  0  0  0  0
   17.8104    2.2755   14.3054 C   0  0  0  0  0  0  0  0  0  0  0  0
   15.3748    2.6910   14.2599 C   0  0  0  0  0  0  0  0  0  0  0  0
   15.2983    0.2139   18.8042 C   0  0  0  0  0  0  0  0  0  0  0  0
   15.4224   -0.5577   19.9556 C   0  0  0  0  0  0  0  0  0  0  0  0
   14.6573   -0.2592   21.0167 F   0  0  0  0  0  0  0  0  0  0  0  0
  1  2  1  0
  2  3  2  0
  3  4  1  0
  4  5  2  0
  5  6  1  0
  6  7  2  0
  6  8  1  0
  8  9  1  0
  9 10  1  0
 10 11  1  0
 11 12  1  0
 12 13  1  0
 13 14  1  0
 13 15  1  0
  5 16  1  0
 16 17  2  0
 17 18  1  0
 17  2  1  0
 13  8  1  0
M  END
>  <original ID>  (317) 
CEDSAUVLJITBTN-UHFFFAOYSA-N

>  <generation_date>  (317) 
None

>  <alias>  (317) 
None

>  <original SMILES>  (317) 
Cc1ccc(C(=O)N2CCNCC2(C)C)cc1F

>  <HIPPO ID>  (317) 
79068

>  <tags>  (317) 
[]

>  <ref_pdb>  (317) 
c0300a

>  <method>  (317) 
None

>  <ref_url>  (317) 
None

>  <inchikey>  (317) 
CEDSAUVLJITBTN-UHFFFAOYSA-N

>  <submitter_email>  (317) 
None

>  <ref_mols>  (317) 
c0398a,c0585a

>  <submitter_name>  (317) 
None

$$$$
ZEWVUFKRBYMFLN-ZDUSSCGKSA-N
     RDKit          3D

 18 19  0  0  0  0  0  0  0  0999 V2000
   19.1392    0.2924   17.1869 C   0  0  0  0  0  0  0  0  0  0  0  0
   19.9046    1.2853   16.3375 C   0  0  0  0  0  0  0  0  0  0  0  0
   19.1332    2.5286   15.9129 C   0  0  0  0  0  0  0  0  0  0  0  0
   18.1209    2.3143   14.7805 C   0  0  1  0  0  0  0  0  0  0  0  0
   16.8975    1.4850   15.2342 C   0  0  0  0  0  0  0  0  0  0  0  0
   16.0985    2.1784   16.2233 N   0  0  0  0  0  0  0  0  0  0  0  0
   15.4548    1.6821   17.3530 C   0  0  0  0  0  0  0  0  0  0  0  0
   14.7331    2.4572   17.9895 O   0  0  0  0  0  0  0  0  0  0  0  0
   15.6362    0.3505   17.9959 C   0  0  0  0  0  0  0  0  0  0  0  0
   16.0176   -0.8430   17.3910 C   0  0  0  0  0  0  0  0  0  0  0  0
   16.2962   -1.9758   18.1731 C   0  0  0  0  0  0  0  0  0  0  0  0
   16.0714   -1.9675   19.5471 C   0  0  0  0  0  0  0  0  0  0  0  0
   15.5775   -0.8174   20.1316 C   0  0  0  0  0  0  0  0  0  0  0  0
   15.2840   -0.7968   21.4374 F   0  0  0  0  0  0  0  0  0  0  0  0
   15.3868    0.3307   19.3819 C   0  0  0  0  0  0  0  0  0  0  0  0
   15.9414    3.6140   15.9609 C   0  0  0  0  0  0  0  0  0  0  0  0
   16.3978    4.0392   14.5581 C   0  0  0  0  0  0  0  0  0  0  0  0
   17.7747    3.6473   14.2252 N   0  0  0  0  0  0  0  0  0  0  0  0
  1  2  1  0
  2  3  1  0
  4  3  1  1
  4  5  1  0
  5  6  1  0
  6  7  1  0
  7  8  2  0
  7  9  1  0
  9 10  2  0
 10 11  1  0
 11 12  2  0
 12 13  1  0
 13 14  1  0
 13 15  2  0
  6 16  1  0
 16 17  1  0
 17 18  1  0
 18  4  1  0
 15  9  1  0
M  END
>  <original ID>  (318) 
ZEWVUFKRBYMFLN-ZDUSSCGKSA-N

>  <generation_date>  (318) 
None

>  <alias>  (318) 
None

>  <original SMILES>  (318) 
CCC[C@H]1CN(C(=O)c2cccc(F)c2)CCN1

>  <HIPPO ID>  (318) 
79145

>  <tags>  (318) 
[]

>  <ref_pdb>  (318) 
c0300a

>  <method>  (318) 
None

>  <ref_url>  (318) 
None

>  <inchikey>  (318) 
ZEWVUFKRBYMFLN-ZDUSSCGKSA-N

>  <submitter_email>  (318) 
None

>  <ref_mols>  (318) 
c0398a,c0585a

>  <submitter_name>  (318) 
None

$$$$
ZEWVUFKRBYMFLN-ZDUSSCGKSA-N
     RDKit          3D

 18 19  0  0  0  0  0  0  0  0999 V2000
   19.0174    0.3413   16.4015 C   0  0  0  0  0  0  0  0  0  0  0  0
   19.5451    1.5341   15.6309 C   0  0  0  0  0  0  0  0  0  0  0  0
   18.7992    2.8323   15.8737 C   0  0  0  0  0  0  0  0  0  0  0  0
   17.5261    3.0874   15.0482 C   0  0  1  0  0  0  0  0  0  0  0  0
   16.4946    1.9473   15.0617 C   0  0  0  0  0  0  0  0  0  0  0  0
   16.0574    1.6235   16.4152 N   0  0  0  0  0  0  0  0  0  0  0  0
   15.7041    0.2994   16.6669 C   0  0  0  0  0  0  0  0  0  0  0  0
   15.5312   -0.5294   15.7752 O   0  0  0  0  0  0  0  0  0  0  0  0
   15.7434   -0.2533   18.0307 C   0  0  0  0  0  0  0  0  0  0  0  0
   16.5877   -1.3668   18.2192 C   0  0  0  0  0  0  0  0  0  0  0  0
   16.6905   -1.9844   19.4606 C   0  0  0  0  0  0  0  0  0  0  0  0
   15.9384   -1.4917   20.5176 C   0  0  0  0  0  0  0  0  0  0  0  0
   15.0716   -0.4189   20.3093 C   0  0  0  0  0  0  0  0  0  0  0  0
   14.3222    0.0134   21.3316 F   0  0  0  0  0  0  0  0  0  0  0  0
   14.9500    0.2003   19.0725 C   0  0  0  0  0  0  0  0  0  0  0  0
   15.9277    2.7629   17.3147 C   0  0  0  0  0  0  0  0  0  0  0  0
   15.8910    4.1134   16.5479 C   0  0  0  0  0  0  0  0  0  0  0  0
   16.9423    4.3582   15.5438 N   0  0  0  0  0  0  0  0  0  0  0  0
  1  2  1  0
  2  3  1  0
  4  3  1  1
  4  5  1  0
  5  6  1  0
  6  7  1  0
  7  8  2  0
  7  9  1  0
  9 10  2  0
 10 11  1  0
 11 12  2  0
 12 13  1  0
 13 14  1  0
 13 15  2  0
  6 16  1  0
 16 17  1  0
 17 18  1  0
 18  4  1  0
 15  9  1  0
M  END
>  <original ID>  (319) 
ZEWVUFKRBYMFLN-ZDUSSCGKSA-N

>  <generation_date>  (319) 
None

>  <alias>  (319) 
None

>  <original SMILES>  (319) 
CCC[C@H]1CN(C(=O)c2cccc(F)c2)CCN1

>  <HIPPO ID>  (319) 
79146

>  <tags>  (319) 
[]

>  <ref_pdb>  (319) 
c0300a

>  <method>  (319) 
None

>  <ref_url>  (319) 
None

>  <inchikey>  (319) 
ZEWVUFKRBYMFLN-ZDUSSCGKSA-N

>  <submitter_email>  (319) 
None

>  <ref_mols>  (319) 
c0398a,c0585a

>  <submitter_name>  (319) 
None

$$$$
YPBMGWXKIQRLCT-SSDOTTSWSA-N
     RDKit          3D

 18 19  0  0  0  0  0  0  0  0999 V2000
   15.9342    2.2277   14.1941 C   0  0  0  0  0  0  0  0  0  0  0  0
   16.0632    2.5217   15.6788 C   0  0  2  0  0  0  0  0  0  0  0  0
   16.8227    3.8360   15.7519 C   0  0  0  0  0  0  0  0  0  0  0  0
   16.2813    4.9106   15.4973 O   0  0  0  0  0  0  0  0  0  0  0  0
   18.1838    3.7361   15.8781 N   0  0  0  0  0  0  0  0  0  0  0  0
   18.8534    2.5471   15.7728 C   0  0  0  0  0  0  0  0  0  0  0  0
   19.9949    2.4927   15.3280 O   0  0  0  0  0  0  0  0  0  0  0  0
   18.1212    1.3060   16.2593 C   0  0  0  0  0  0  0  0  0  0  0  0
   16.6974    1.4880   16.5011 N   0  0  0  0  0  0  0  0  0  0  0  0
   16.0122    0.2746   16.6197 C   0  0  0  0  0  0  0  0  0  0  0  0
   15.4576   -0.3158   15.7069 O   0  0  0  0  0  0  0  0  0  0  0  0
   16.1012   -0.4036   17.9161 C   0  0  0  0  0  0  0  0  0  0  0  0
   16.8213   -1.6014   18.0003 C   0  0  0  0  0  0  0  0  0  0  0  0
   16.8547   -2.2996   19.2041 C   0  0  0  0  0  0  0  0  0  0  0  0
   16.1543   -1.8049   20.3032 C   0  0  0  0  0  0  0  0  0  0  0  0
   15.4169   -0.6272   20.1877 C   0  0  0  0  0  0  0  0  0  0  0  0
   14.7166   -0.1877   21.2418 F   0  0  0  0  0  0  0  0  0  0  0  0
   15.3841    0.0898   19.0018 C   0  0  0  0  0  0  0  0  0  0  0  0
  2  1  1  6
  2  3  1  0
  3  4  2  0
  3  5  1  0
  5  6  1  0
  6  7  2  0
  6  8  1  0
  8  9  1  0
  9 10  1  0
 10 11  2  0
 10 12  1  0
 12 13  2  0
 13 14  1  0
 14 15  2  0
 15 16  1  0
 16 17  1  0
 16 18  2  0
  9  2  1  0
 18 12  1  0
M  END
>  <original ID>  (320) 
YPBMGWXKIQRLCT-SSDOTTSWSA-N

>  <generation_date>  (320) 
None

>  <alias>  (320) 
None

>  <original SMILES>  (320) 
C[C@@H]1C(=O)NC(=O)CN1C(=O)c1cccc(F)c1

>  <HIPPO ID>  (320) 
79169

>  <tags>  (320) 
[]

>  <ref_pdb>  (320) 
c0300a

>  <method>  (320) 
None

>  <ref_url>  (320) 
None

>  <inchikey>  (320) 
YPBMGWXKIQRLCT-SSDOTTSWSA-N

>  <submitter_email>  (320) 
None

>  <ref_mols>  (320) 
c0398a,c0585a

>  <submitter_name>  (320) 
None

$$$$
YPBMGWXKIQRLCT-SSDOTTSWSA-N
     RDKit          3D

 18 19  0  0  0  0  0  0  0  0999 V2000
   15.9499    2.2304   14.1836 C   0  0  0  0  0  0  0  0  0  0  0  0
   16.0544    2.5239   15.6695 C   0  0  2  0  0  0  0  0  0  0  0  0
   16.7897    3.8495   15.7582 C   0  0  0  0  0  0  0  0  0  0  0  0
   16.2372    4.9157   15.4924 O   0  0  0  0  0  0  0  0  0  0  0  0
   18.1479    3.7741   15.9218 N   0  0  0  0  0  0  0  0  0  0  0  0
   18.8506    2.6019   15.8488 C   0  0  0  0  0  0  0  0  0  0  0  0
   20.0179    2.5845   15.4728 O   0  0  0  0  0  0  0  0  0  0  0  0
   18.1211    1.3348   16.2681 C   0  0  0  0  0  0  0  0  0  0  0  0
   16.6932    1.4992   16.4990 N   0  0  0  0  0  0  0  0  0  0  0  0
   16.0186    0.2797   16.6151 C   0  0  0  0  0  0  0  0  0  0  0  0
   15.4613   -0.3100   15.7037 O   0  0  0  0  0  0  0  0  0  0  0  0
   16.1095   -0.4000   17.9107 C   0  0  0  0  0  0  0  0  0  0  0  0
   16.8290   -1.5982   17.9929 C   0  0  0  0  0  0  0  0  0  0  0  0
   16.8607   -2.2994   19.1952 C   0  0  0  0  0  0  0  0  0  0  0  0
   16.1590   -1.8074   20.2948 C   0  0  0  0  0  0  0  0  0  0  0  0
   15.4222   -0.6292   20.1813 C   0  0  0  0  0  0  0  0  0  0  0  0
   14.7206   -0.1920   21.2356 F   0  0  0  0  0  0  0  0  0  0  0  0
   15.3911    0.0906   18.9970 C   0  0  0  0  0  0  0  0  0  0  0  0
  2  1  1  6
  2  3  1  0
  3  4  2  0
  3  5  1  0
  5  6  1  0
  6  7  2  0
  6  8  1  0
  8  9  1  0
  9 10  1  0
 10 11  2  0
 10 12  1  0
 12 13  2  0
 13 14  1  0
 14 15  2  0
 15 16  1  0
 16 17  1  0
 16 18  2  0
  9  2  1  0
 18 12  1  0
M  END
>  <original ID>  (321) 
YPBMGWXKIQRLCT-SSDOTTSWSA-N

>  <generation_date>  (321) 
None

>  <alias>  (321) 
None

>  <original SMILES>  (321) 
C[C@@H]1C(=O)NC(=O)CN1C(=O)c1cccc(F)c1

>  <HIPPO ID>  (321) 
79170

>  <tags>  (321) 
[]

>  <ref_pdb>  (321) 
c0300a

>  <method>  (321) 
None

>  <ref_url>  (321) 
None

>  <inchikey>  (321) 
YPBMGWXKIQRLCT-SSDOTTSWSA-N

>  <submitter_email>  (321) 
None

>  <ref_mols>  (321) 
c0398a,c0585a

>  <submitter_name>  (321) 
None

$$$$
AJAFOVNKAYDVKL-ZDUSSCGKSA-N
     RDKit          3D

 18 19  0  0  0  0  0  0  0  0999 V2000
   18.7486    1.3340   17.8844 C   0  0  0  0  0  0  0  0  0  0  0  0
   18.8012    1.8101   16.4396 C   0  0  0  0  0  0  0  0  0  0  0  0
   19.9467    1.0689   15.7482 C   0  0  0  0  0  0  0  0  0  0  0  0
   17.4642    1.6161   15.6888 C   0  0  2  0  0  0  0  0  0  0  0  0
   17.5149    2.2759   14.2757 C   0  0  0  0  0  0  0  0  0  0  0  0
   17.5296    3.7510   14.2833 N   0  0  0  0  0  0  0  0  0  0  0  0
   16.3122    4.2002   14.9681 C   0  0  0  0  0  0  0  0  0  0  0  0
   16.1853    3.6156   16.3789 C   0  0  0  0  0  0  0  0  0  0  0  0
   16.3009    2.1473   16.4243 N   0  0  0  0  0  0  0  0  0  0  0  0
   15.4934    1.5144   17.3763 C   0  0  0  0  0  0  0  0  0  0  0  0
   14.5737    2.1484   17.8998 O   0  0  0  0  0  0  0  0  0  0  0  0
   15.7331    0.1925   18.0067 C   0  0  0  0  0  0  0  0  0  0  0  0
   16.2304   -0.9588   17.4047 C   0  0  0  0  0  0  0  0  0  0  0  0
   16.5097   -2.0924   18.1842 C   0  0  0  0  0  0  0  0  0  0  0  0
   16.2140   -2.1127   19.5469 C   0  0  0  0  0  0  0  0  0  0  0  0
   15.6429   -0.9934   20.1241 C   0  0  0  0  0  0  0  0  0  0  0  0
   15.3155   -0.9900   21.4216 F   0  0  0  0  0  0  0  0  0  0  0  0
   15.4165    0.1466   19.3772 C   0  0  0  0  0  0  0  0  0  0  0  0
  1  2  1  0
  2  3  1  0
  4  2  1  1
  4  5  1  0
  5  6  1  0
  6  7  1  0
  7  8  1  0
  8  9  1  0
  9 10  1  0
 10 11  2  0
 10 12  1  0
 12 13  2  0
 13 14  1  0
 14 15  2  0
 15 16  1  0
 16 17  1  0
 16 18  2  0
  9  4  1  0
 18 12  1  0
M  END
>  <original ID>  (322) 
AJAFOVNKAYDVKL-ZDUSSCGKSA-N

>  <generation_date>  (322) 
None

>  <alias>  (322) 
None

>  <original SMILES>  (322) 
CC(C)[C@@H]1CNCCN1C(=O)c1cccc(F)c1

>  <HIPPO ID>  (322) 
79205

>  <tags>  (322) 
[]

>  <ref_pdb>  (322) 
c0300a

>  <method>  (322) 
None

>  <ref_url>  (322) 
None

>  <inchikey>  (322) 
AJAFOVNKAYDVKL-ZDUSSCGKSA-N

>  <submitter_email>  (322) 
None

>  <ref_mols>  (322) 
c0398a,c0585a

>  <submitter_name>  (322) 
None

$$$$
AJAFOVNKAYDVKL-CYBMUJFWSA-N
     RDKit          3D

 18 19  0  0  0  0  0  0  0  0999 V2000
   20.0475    1.5650   17.1991 C   0  0  0  0  0  0  0  0  0  0  0  0
   19.0370    1.0415   16.1809 C   0  0  0  0  0  0  0  0  0  0  0  0
   18.7593   -0.4085   16.5356 C   0  0  0  0  0  0  0  0  0  0  0  0
   17.8811    2.0596   16.0785 C   0  0  1  0  0  0  0  0  0  0  0  0
   17.5197    2.4069   14.6127 C   0  0  0  0  0  0  0  0  0  0  0  0
   16.7110    3.6471   14.5538 N   0  0  0  0  0  0  0  0  0  0  0  0
   15.5268    3.4753   15.4165 C   0  0  0  0  0  0  0  0  0  0  0  0
   15.8592    3.0460   16.8707 C   0  0  0  0  0  0  0  0  0  0  0  0
   16.6976    1.8523   16.9328 N   0  0  0  0  0  0  0  0  0  0  0  0
   15.9740    0.6560   16.7779 C   0  0  0  0  0  0  0  0  0  0  0  0
   15.7455    0.1276   15.6980 O   0  0  0  0  0  0  0  0  0  0  0  0
   15.7581   -0.1246   18.0263 C   0  0  0  0  0  0  0  0  0  0  0  0
   16.1160   -1.4836   18.0017 C   0  0  0  0  0  0  0  0  0  0  0  0
   16.1747   -2.2304   19.1744 C   0  0  0  0  0  0  0  0  0  0  0  0
   15.7826   -1.6424   20.3660 C   0  0  0  0  0  0  0  0  0  0  0  0
   15.3122   -0.3331   20.3641 C   0  0  0  0  0  0  0  0  0  0  0  0
   14.8336    0.1772   21.5054 F   0  0  0  0  0  0  0  0  0  0  0  0
   15.3282    0.4503   19.2160 C   0  0  0  0  0  0  0  0  0  0  0  0
  1  2  1  0
  2  3  1  0
  4  2  1  6
  4  5  1  0
  5  6  1  0
  6  7  1  0
  7  8  1  0
  8  9  1  0
  9 10  1  0
 10 11  2  0
 10 12  1  0
 12 13  2  0
 13 14  1  0
 14 15  2  0
 15 16  1  0
 16 17  1  0
 16 18  2  0
  9  4  1  0
 18 12  1  0
M  END
>  <original ID>  (323) 
AJAFOVNKAYDVKL-CYBMUJFWSA-N

>  <generation_date>  (323) 
None

>  <alias>  (323) 
None

>  <original SMILES>  (323) 
CC(C)[C@H]1CNCCN1C(=O)c1cccc(F)c1

>  <HIPPO ID>  (323) 
79206

>  <tags>  (323) 
[]

>  <ref_pdb>  (323) 
c0300a

>  <method>  (323) 
None

>  <ref_url>  (323) 
None

>  <inchikey>  (323) 
AJAFOVNKAYDVKL-CYBMUJFWSA-N

>  <submitter_email>  (323) 
None

>  <ref_mols>  (323) 
c0398a,c0585a

>  <submitter_name>  (323) 
None

$$$$
DGJXANDSEDXGSJ-NSHDSACASA-N
     RDKit          3D

 19 20  0  0  0  0  0  0  0  0999 V2000
   20.0008    0.7827   15.9123 C   0  0  0  0  0  0  0  0  0  0  0  0
   19.1767    1.4988   16.9485 C   0  0  0  0  0  0  0  0  0  0  0  0
   18.7925    2.8995   16.4857 C   0  0  0  0  0  0  0  0  0  0  0  0
   17.7663    2.9907   15.3260 C   0  0  1  0  0  0  0  0  0  0  0  0
   16.8092    1.7915   15.1687 C   0  0  0  0  0  0  0  0  0  0  0  0
   16.0650    1.5304   16.3882 N   0  0  0  0  0  0  0  0  0  0  0  0
   15.6768    0.2187   16.6142 C   0  0  0  0  0  0  0  0  0  0  0  0
   15.4939   -0.5985   15.7170 O   0  0  0  0  0  0  0  0  0  0  0  0
   15.7796   -0.3432   17.9655 C   0  0  0  0  0  0  0  0  0  0  0  0
   16.7210   -1.3814   18.1066 C   0  0  0  0  0  0  0  0  0  0  0  0
   16.9376   -1.9752   19.3420 C   0  0  0  0  0  0  0  0  0  0  0  0
   16.2090   -1.5241   20.4355 C   0  0  0  0  0  0  0  0  0  0  0  0
   16.5959   -2.2512   22.1341 Br  0  0  0  0  0  0  0  0  0  0  0  0
   15.2415   -0.5259   20.2774 C   0  0  0  0  0  0  0  0  0  0  0  0
   14.5211   -0.1070   21.3281 F   0  0  0  0  0  0  0  0  0  0  0  0
   15.0080    0.0655   19.0417 C   0  0  0  0  0  0  0  0  0  0  0  0
   15.8076    2.6883   17.2336 C   0  0  0  0  0  0  0  0  0  0  0  0
   15.8272    4.0047   16.4044 C   0  0  0  0  0  0  0  0  0  0  0  0
   17.0058    4.2446   15.5340 N   0  0  0  0  0  0  0  0  0  0  0  0
  1  2  1  0
  2  3  1  0
  4  3  1  1
  4  5  1  0
  5  6  1  0
  6  7  1  0
  7  8  2  0
  7  9  1  0
  9 10  2  0
 10 11  1  0
 11 12  2  0
 12 13  1  0
 12 14  1  0
 14 15  1  0
 14 16  2  0
  6 17  1  0
 17 18  1  0
 18 19  1  0
 19  4  1  0
 16  9  1  0
M  END
>  <original ID>  (324) 
DGJXANDSEDXGSJ-NSHDSACASA-N

>  <generation_date>  (324) 
None

>  <alias>  (324) 
None

>  <original SMILES>  (324) 
CCC[C@H]1CN(C(=O)c2ccc(Br)c(F)c2)CCN1

>  <HIPPO ID>  (324) 
79289

>  <tags>  (324) 
[]

>  <ref_pdb>  (324) 
c0300a

>  <method>  (324) 
None

>  <ref_url>  (324) 
None

>  <inchikey>  (324) 
DGJXANDSEDXGSJ-NSHDSACASA-N

>  <submitter_email>  (324) 
None

>  <ref_mols>  (324) 
c0398a,c0585a

>  <submitter_name>  (324) 
None

$$$$
DGJXANDSEDXGSJ-LLVKDONJSA-N
     RDKit          3D

 19 20  0  0  0  0  0  0  0  0999 V2000
   18.5164   -0.0742   16.1351 C   0  0  0  0  0  0  0  0  0  0  0  0
   19.3412    1.0111   15.4818 C   0  0  0  0  0  0  0  0  0  0  0  0
   19.6415    2.2838   16.2508 C   0  0  0  0  0  0  0  0  0  0  0  0
   18.6741    3.4797   16.2176 C   0  0  2  0  0  0  0  0  0  0  0  0
   17.5438    3.3050   17.2302 C   0  0  0  0  0  0  0  0  0  0  0  0
   16.5888    2.3455   16.7393 N   0  0  0  0  0  0  0  0  0  0  0  0
   15.7104    1.8314   17.6736 C   0  0  0  0  0  0  0  0  0  0  0  0
   14.5741    2.2581   17.8059 O   0  0  0  0  0  0  0  0  0  0  0  0
   16.1287    0.7081   18.5305 C   0  0  0  0  0  0  0  0  0  0  0  0
   17.4253    0.4618   18.9850 C   0  0  0  0  0  0  0  0  0  0  0  0
   17.7154   -0.6490   19.7799 C   0  0  0  0  0  0  0  0  0  0  0  0
   16.6870   -1.4801   20.1785 C   0  0  0  0  0  0  0  0  0  0  0  0
   17.0767   -2.9187   21.3257 Br  0  0  0  0  0  0  0  0  0  0  0  0
   15.3986   -1.1961   19.7546 C   0  0  0  0  0  0  0  0  0  0  0  0
   14.3696   -1.9117   20.1677 F   0  0  0  0  0  0  0  0  0  0  0  0
   15.1094   -0.1362   18.9254 C   0  0  0  0  0  0  0  0  0  0  0  0
   15.9824    2.8047   15.4926 C   0  0  0  0  0  0  0  0  0  0  0  0
   17.0226    3.1664   14.4198 C   0  0  0  0  0  0  0  0  0  0  0  0
   18.2020    3.9290   14.8858 N   0  0  0  0  0  0  0  0  0  0  0  0
  1  2  1  0
  2  3  1  0
  4  3  1  6
  4  5  1  0
  5  6  1  0
  6  7  1  0
  7  8  2  0
  7  9  1  0
  9 10  2  0
 10 11  1  0
 11 12  2  0
 12 13  1  0
 12 14  1  0
 14 15  1  0
 14 16  2  0
  6 17  1  0
 17 18  1  0
 18 19  1  0
 19  4  1  0
 16  9  1  0
M  END
>  <original ID>  (325) 
DGJXANDSEDXGSJ-LLVKDONJSA-N

>  <generation_date>  (325) 
None

>  <alias>  (325) 
None

>  <original SMILES>  (325) 
CCC[C@@H]1CN(C(=O)c2ccc(Br)c(F)c2)CCN1

>  <HIPPO ID>  (325) 
79290

>  <tags>  (325) 
[]

>  <ref_pdb>  (325) 
c0300a

>  <method>  (325) 
None

>  <ref_url>  (325) 
None

>  <inchikey>  (325) 
DGJXANDSEDXGSJ-LLVKDONJSA-N

>  <submitter_email>  (325) 
None

>  <ref_mols>  (325) 
c0398a,c0585a

>  <submitter_name>  (325) 
None

$$$$
GPDVYZHVKUYEBH-ZDUSSCGKSA-N
     RDKit          3D

 19 20  0  0  0  0  0  0  0  0999 V2000
   19.7034    2.0177   17.3211 C   0  0  0  0  0  0  0  0  0  0  0  0
   19.1164    1.2119   16.1629 C   0  0  0  0  0  0  0  0  0  0  0  0
   19.0469   -0.2451   16.5881 C   0  0  0  0  0  0  0  0  0  0  0  0
   17.7618    1.7466   15.6505 C   0  0  2  0  0  0  0  0  0  0  0  0
   17.9495    3.1618   15.0410 C   0  0  0  0  0  0  0  0  0  0  0  0
   16.7087    3.7257   14.4896 N   0  0  0  0  0  0  0  0  0  0  0  0
   15.5826    3.5081   15.4211 C   0  0  0  0  0  0  0  0  0  0  0  0
   15.9484    2.9168   16.8023 C   0  0  0  0  0  0  0  0  0  0  0  0
   16.7056    1.6776   16.6888 N   0  0  0  0  0  0  0  0  0  0  0  0
   15.9359    0.4967   16.6808 C   0  0  0  0  0  0  0  0  0  0  0  0
   15.6264   -0.1111   15.6643 O   0  0  0  0  0  0  0  0  0  0  0  0
   15.8253   -0.2267   17.9665 C   0  0  0  0  0  0  0  0  0  0  0  0
   16.3521   -1.5309   17.9929 C   0  0  0  0  0  0  0  0  0  0  0  0
   16.5309   -2.2010   19.1980 C   0  0  0  0  0  0  0  0  0  0  0  0
   16.1160   -1.5845   20.3695 C   0  0  0  0  0  0  0  0  0  0  0  0
   16.5896   -2.3535   22.0277 Br  0  0  0  0  0  0  0  0  0  0  0  0
   15.4413   -0.3633   20.3181 C   0  0  0  0  0  0  0  0  0  0  0  0
   14.9217    0.1657   21.4352 F   0  0  0  0  0  0  0  0  0  0  0  0
   15.3168    0.3422   19.1258 C   0  0  0  0  0  0  0  0  0  0  0  0
  1  2  1  0
  2  3  1  0
  4  2  1  1
  4  5  1  0
  5  6  1  0
  6  7  1  0
  7  8  1  0
  8  9  1  0
  9 10  1  0
 10 11  2  0
 10 12  1  0
 12 13  2  0
 13 14  1  0
 14 15  2  0
 15 16  1  0
 15 17  1  0
 17 18  1  0
 17 19  2  0
  9  4  1  0
 19 12  1  0
M  END
>  <original ID>  (326) 
GPDVYZHVKUYEBH-ZDUSSCGKSA-N

>  <generation_date>  (326) 
None

>  <alias>  (326) 
None

>  <original SMILES>  (326) 
CC(C)[C@@H]1CNCCN1C(=O)c1ccc(Br)c(F)c1

>  <HIPPO ID>  (326) 
79369

>  <tags>  (326) 
[]

>  <ref_pdb>  (326) 
c0300a

>  <method>  (326) 
None

>  <ref_url>  (326) 
None

>  <inchikey>  (326) 
GPDVYZHVKUYEBH-ZDUSSCGKSA-N

>  <submitter_email>  (326) 
None

>  <ref_mols>  (326) 
c0398a,c0585a

>  <submitter_name>  (326) 
None

$$$$
GPDVYZHVKUYEBH-ZDUSSCGKSA-N
     RDKit          3D

 19 20  0  0  0  0  0  0  0  0999 V2000
   20.0948    1.2524   15.8466 C   0  0  0  0  0  0  0  0  0  0  0  0
   18.9523    2.0555   16.4420 C   0  0  0  0  0  0  0  0  0  0  0  0
   19.0057    1.8825   17.9582 C   0  0  0  0  0  0  0  0  0  0  0  0
   17.6556    1.5744   15.7706 C   0  0  2  0  0  0  0  0  0  0  0  0
   17.3451    2.3615   14.4720 C   0  0  0  0  0  0  0  0  0  0  0  0
   16.8298    3.7233   14.7302 N   0  0  0  0  0  0  0  0  0  0  0  0
   15.6162    3.5852   15.5576 C   0  0  0  0  0  0  0  0  0  0  0  0
   15.8836    2.8490   16.8865 C   0  0  0  0  0  0  0  0  0  0  0  0
   16.5321    1.5579   16.7011 N   0  0  0  0  0  0  0  0  0  0  0  0
   15.7701    0.3929   16.6758 C   0  0  0  0  0  0  0  0  0  0  0  0
   15.4924   -0.2383   15.6648 O   0  0  0  0  0  0  0  0  0  0  0  0
   15.7943   -0.3416   17.9485 C   0  0  0  0  0  0  0  0  0  0  0  0
   16.6389   -1.4633   18.0033 C   0  0  0  0  0  0  0  0  0  0  0  0
   16.8575   -2.1103   19.2126 C   0  0  0  0  0  0  0  0  0  0  0  0
   16.2240   -1.6297   20.3547 C   0  0  0  0  0  0  0  0  0  0  0  0
   16.6766   -2.3857   22.0250 Br  0  0  0  0  0  0  0  0  0  0  0  0
   15.3292   -0.5578   20.2717 C   0  0  0  0  0  0  0  0  0  0  0  0
   14.6860   -0.1223   21.3652 F   0  0  0  0  0  0  0  0  0  0  0  0
   15.1087    0.1014   19.0705 C   0  0  0  0  0  0  0  0  0  0  0  0
  1  2  1  0
  2  3  1  0
  4  2  1  1
  4  5  1  0
  5  6  1  0
  6  7  1  0
  7  8  1  0
  8  9  1  0
  9 10  1  0
 10 11  2  0
 10 12  1  0
 12 13  2  0
 13 14  1  0
 14 15  2  0
 15 16  1  0
 15 17  1  0
 17 18  1  0
 17 19  2  0
  9  4  1  0
 19 12  1  0
M  END
>  <original ID>  (327) 
GPDVYZHVKUYEBH-ZDUSSCGKSA-N

>  <generation_date>  (327) 
None

>  <alias>  (327) 
None

>  <original SMILES>  (327) 
CC(C)[C@@H]1CNCCN1C(=O)c1ccc(Br)c(F)c1

>  <HIPPO ID>  (327) 
79370

>  <tags>  (327) 
[]

>  <ref_pdb>  (327) 
c0300a

>  <method>  (327) 
None

>  <ref_url>  (327) 
None

>  <inchikey>  (327) 
GPDVYZHVKUYEBH-ZDUSSCGKSA-N

>  <submitter_email>  (327) 
None

>  <ref_mols>  (327) 
c0398a,c0585a

>  <submitter_name>  (327) 
None

$$$$
PUCCNUAFLUVXOF-UHFFFAOYSA-N
     RDKit          3D

 19 20  0  0  0  0  0  0  0  0999 V2000
   16.4067    2.5764   13.9658 C   0  0  0  0  0  0  0  0  0  0  0  0
   16.5490    3.0650   15.4111 C   0  0  0  0  0  0  0  0  0  0  0  0
   15.2758    3.8943   15.6766 C   0  0  0  0  0  0  0  0  0  0  0  0
   17.7169    4.0844   15.5505 C   0  0  0  0  0  0  0  0  0  0  0  0
   19.0664    3.5898   15.2734 N   0  0  0  0  0  0  0  0  0  0  0  0
   19.2014    2.1536   15.5218 C   0  0  0  0  0  0  0  0  0  0  0  0
   18.2249    1.5647   16.5486 C   0  0  0  0  0  0  0  0  0  0  0  0
   16.8083    1.8745   16.3087 N   0  0  0  0  0  0  0  0  0  0  0  0
   15.8261    1.3886   17.1814 C   0  0  0  0  0  0  0  0  0  0  0  0
   14.7976    2.0088   17.4252 O   0  0  0  0  0  0  0  0  0  0  0  0
   16.0090    0.1739   18.0141 C   0  0  0  0  0  0  0  0  0  0  0  0
   15.4806    0.2262   19.3118 C   0  0  0  0  0  0  0  0  0  0  0  0
   15.6246   -0.8513   20.1739 C   0  0  0  0  0  0  0  0  0  0  0  0
   15.1428   -0.7344   21.4203 F   0  0  0  0  0  0  0  0  0  0  0  0
   16.2700   -2.0216   19.7759 C   0  0  0  0  0  0  0  0  0  0  0  0
   16.6166   -3.0233   20.7024 N   0  0  0  0  0  0  0  0  0  0  0  0
   16.7790   -2.0569   18.4722 C   0  0  0  0  0  0  0  0  0  0  0  0
   17.4577   -3.1445   18.0727 F   0  0  0  0  0  0  0  0  0  0  0  0
   16.6152   -0.9995   17.5759 C   0  0  0  0  0  0  0  0  0  0  0  0
  1  2  1  0
  2  3  1  0
  2  4  1  0
  4  5  1  0
  5  6  1  0
  6  7  1  0
  7  8  1  0
  8  9  1  0
  9 10  2  0
  9 11  1  0
 11 12  2  0
 12 13  1  0
 13 14  1  0
 13 15  2  0
 15 16  1  0
 15 17  1  0
 17 18  1  0
 17 19  2  0
  8  2  1  0
 19 11  1  0
M  END
>  <original ID>  (328) 
PUCCNUAFLUVXOF-UHFFFAOYSA-N

>  <generation_date>  (328) 
None

>  <alias>  (328) 
None

>  <original SMILES>  (328) 
CC1(C)CNCCN1C(=O)c1cc(F)c(N)c(F)c1

>  <HIPPO ID>  (328) 
79409

>  <tags>  (328) 
[]

>  <ref_pdb>  (328) 
c0300a

>  <method>  (328) 
None

>  <ref_url>  (328) 
None

>  <inchikey>  (328) 
PUCCNUAFLUVXOF-UHFFFAOYSA-N

>  <submitter_email>  (328) 
None

>  <ref_mols>  (328) 
c0398a,c0585a

>  <submitter_name>  (328) 
None

$$$$
GUJSDVZNSDWWAS-ZCFIWIBFSA-N
     RDKit          3D

 19 20  0  0  0  0  0  0  0  0999 V2000
   15.9295    2.2419   14.1580 C   0  0  0  0  0  0  0  0  0  0  0  0
   16.0493    2.5263   15.6441 C   0  0  2  0  0  0  0  0  0  0  0  0
   16.7997    3.8448   15.7332 C   0  0  0  0  0  0  0  0  0  0  0  0
   16.2519    4.9180   15.4867 O   0  0  0  0  0  0  0  0  0  0  0  0
   18.1604    3.7542   15.8673 N   0  0  0  0  0  0  0  0  0  0  0  0
   18.8413    2.5715   15.7690 C   0  0  0  0  0  0  0  0  0  0  0  0
   19.9915    2.5278   15.3462 O   0  0  0  0  0  0  0  0  0  0  0  0
   18.1126    1.3228   16.2386 C   0  0  0  0  0  0  0  0  0  0  0  0
   16.6829    1.4873   16.4586 N   0  0  0  0  0  0  0  0  0  0  0  0
   16.0011    0.2720   16.5767 C   0  0  0  0  0  0  0  0  0  0  0  0
   15.4213   -0.3141   15.6785 O   0  0  0  0  0  0  0  0  0  0  0  0
   16.1270   -0.4146   17.8631 C   0  0  0  0  0  0  0  0  0  0  0  0
   16.9711   -1.5265   17.9502 C   0  0  0  0  0  0  0  0  0  0  0  0
   17.1248   -2.1711   19.1730 C   0  0  0  0  0  0  0  0  0  0  0  0
   16.4186   -1.7068   20.2834 C   0  0  0  0  0  0  0  0  0  0  0  0
   16.7684   -2.4817   21.9686 Br  0  0  0  0  0  0  0  0  0  0  0  0
   15.5211   -0.6435   20.1597 C   0  0  0  0  0  0  0  0  0  0  0  0
   14.8053   -0.2250   21.2143 F   0  0  0  0  0  0  0  0  0  0  0  0
   15.3706    0.0170   18.9496 C   0  0  0  0  0  0  0  0  0  0  0  0
  2  1  1  6
  2  3  1  0
  3  4  2  0
  3  5  1  0
  5  6  1  0
  6  7  2  0
  6  8  1  0
  8  9  1  0
  9 10  1  0
 10 11  2  0
 10 12  1  0
 12 13  2  0
 13 14  1  0
 14 15  2  0
 15 16  1  0
 15 17  1  0
 17 18  1  0
 17 19  2  0
  9  2  1  0
 19 12  1  0
M  END
>  <original ID>  (329) 
GUJSDVZNSDWWAS-ZCFIWIBFSA-N

>  <generation_date>  (329) 
None

>  <alias>  (329) 
None

>  <original SMILES>  (329) 
C[C@@H]1C(=O)NC(=O)CN1C(=O)c1ccc(Br)c(F)c1

>  <HIPPO ID>  (329) 
79505

>  <tags>  (329) 
[]

>  <ref_pdb>  (329) 
c0300a

>  <method>  (329) 
None

>  <ref_url>  (329) 
None

>  <inchikey>  (329) 
GUJSDVZNSDWWAS-ZCFIWIBFSA-N

>  <submitter_email>  (329) 
None

>  <ref_mols>  (329) 
c0398a,c0585a

>  <submitter_name>  (329) 
None

$$$$
GUJSDVZNSDWWAS-ZCFIWIBFSA-N
     RDKit          3D

 19 20  0  0  0  0  0  0  0  0999 V2000
   15.9431    2.2618   14.1640 C   0  0  0  0  0  0  0  0  0  0  0  0
   16.0505    2.5336   15.6538 C   0  0  2  0  0  0  0  0  0  0  0  0
   16.7920    3.8554   15.7687 C   0  0  0  0  0  0  0  0  0  0  0  0
   16.2368    4.9314   15.5538 O   0  0  0  0  0  0  0  0  0  0  0  0
   18.1538    3.7701   15.8962 N   0  0  0  0  0  0  0  0  0  0  0  0
   18.8466    2.5937   15.8054 C   0  0  0  0  0  0  0  0  0  0  0  0
   20.0075    2.5653   15.4113 O   0  0  0  0  0  0  0  0  0  0  0  0
   18.1168    1.3327   16.2398 C   0  0  0  0  0  0  0  0  0  0  0  0
   16.6867    1.4919   16.4621 N   0  0  0  0  0  0  0  0  0  0  0  0
   16.0066    0.2756   16.5748 C   0  0  0  0  0  0  0  0  0  0  0  0
   15.4265   -0.3063   15.6741 O   0  0  0  0  0  0  0  0  0  0  0  0
   16.1300   -0.4142   17.8598 C   0  0  0  0  0  0  0  0  0  0  0  0
   16.9736   -1.5265   17.9459 C   0  0  0  0  0  0  0  0  0  0  0  0
   17.1265   -2.1724   19.1681 C   0  0  0  0  0  0  0  0  0  0  0  0
   16.4202   -1.7090   20.2789 C   0  0  0  0  0  0  0  0  0  0  0  0
   16.7703   -2.4846   21.9637 Br  0  0  0  0  0  0  0  0  0  0  0  0
   15.5230   -0.6454   20.1560 C   0  0  0  0  0  0  0  0  0  0  0  0
   14.8071   -0.2275   21.2108 F   0  0  0  0  0  0  0  0  0  0  0  0
   15.3731    0.0164   18.9465 C   0  0  0  0  0  0  0  0  0  0  0  0
  2  1  1  6
  2  3  1  0
  3  4  2  0
  3  5  1  0
  5  6  1  0
  6  7  2  0
  6  8  1  0
  8  9  1  0
  9 10  1  0
 10 11  2  0
 10 12  1  0
 12 13  2  0
 13 14  1  0
 14 15  2  0
 15 16  1  0
 15 17  1  0
 17 18  1  0
 17 19  2  0
  9  2  1  0
 19 12  1  0
M  END
>  <original ID>  (330) 
GUJSDVZNSDWWAS-ZCFIWIBFSA-N

>  <generation_date>  (330) 
None

>  <alias>  (330) 
None

>  <original SMILES>  (330) 
C[C@@H]1C(=O)NC(=O)CN1C(=O)c1ccc(Br)c(F)c1

>  <HIPPO ID>  (330) 
79506

>  <tags>  (330) 
[]

>  <ref_pdb>  (330) 
c0300a

>  <method>  (330) 
None

>  <ref_url>  (330) 
None

>  <inchikey>  (330) 
GUJSDVZNSDWWAS-ZCFIWIBFSA-N

>  <submitter_email>  (330) 
None

>  <ref_mols>  (330) 
c0398a,c0585a

>  <submitter_name>  (330) 
None

$$$$
QKVLIJJEBUOOBM-ZCFIWIBFSA-N
     RDKit          3D

 19 20  0  0  0  0  0  0  0  0999 V2000
   15.9349    2.2425   14.1734 C   0  0  0  0  0  0  0  0  0  0  0  0
   16.0563    2.5361   15.6584 C   0  0  2  0  0  0  0  0  0  0  0  0
   16.8136    3.8510   15.7388 C   0  0  0  0  0  0  0  0  0  0  0  0
   16.2708    4.9248   15.4850 O   0  0  0  0  0  0  0  0  0  0  0  0
   18.1739    3.7530   15.8736 N   0  0  0  0  0  0  0  0  0  0  0  0
   18.8474    2.5658   15.7757 C   0  0  0  0  0  0  0  0  0  0  0  0
   19.9946    2.5142   15.3459 O   0  0  0  0  0  0  0  0  0  0  0  0
   18.1121    1.3220   16.2498 C   0  0  0  0  0  0  0  0  0  0  0  0
   16.6854    1.5005   16.4818 N   0  0  0  0  0  0  0  0  0  0  0  0
   15.9993    0.2889   16.5971 C   0  0  0  0  0  0  0  0  0  0  0  0
   15.4460   -0.3070   15.6867 O   0  0  0  0  0  0  0  0  0  0  0  0
   16.0895   -0.3934   17.8886 C   0  0  0  0  0  0  0  0  0  0  0  0
   15.3658    0.0810   18.9782 C   0  0  0  0  0  0  0  0  0  0  0  0
   15.4069   -0.6462   20.1583 C   0  0  0  0  0  0  0  0  0  0  0  0
   14.7078   -0.2167   21.2171 F   0  0  0  0  0  0  0  0  0  0  0  0
   16.1544   -1.8170   20.2654 C   0  0  0  0  0  0  0  0  0  0  0  0
   16.8554   -2.2820   19.1569 C   0  0  0  0  0  0  0  0  0  0  0  0
   17.8589   -3.8760   19.2702 Br  0  0  0  0  0  0  0  0  0  0  0  0
   16.8235   -1.5799   17.9589 C   0  0  0  0  0  0  0  0  0  0  0  0
  2  1  1  6
  2  3  1  0
  3  4  2  0
  3  5  1  0
  5  6  1  0
  6  7  2  0
  6  8  1  0
  8  9  1  0
  9 10  1  0
 10 11  2  0
 10 12  1  0
 12 13  2  0
 13 14  1  0
 14 15  1  0
 14 16  2  0
 16 17  1  0
 17 18  1  0
 17 19  2  0
  9  2  1  0
 19 12  1  0
M  END
>  <original ID>  (331) 
QKVLIJJEBUOOBM-ZCFIWIBFSA-N

>  <generation_date>  (331) 
None

>  <alias>  (331) 
None

>  <original SMILES>  (331) 
C[C@@H]1C(=O)NC(=O)CN1C(=O)c1cc(F)cc(Br)c1

>  <HIPPO ID>  (331) 
79614

>  <tags>  (331) 
[]

>  <ref_pdb>  (331) 
c0300a

>  <method>  (331) 
None

>  <ref_url>  (331) 
None

>  <inchikey>  (331) 
QKVLIJJEBUOOBM-ZCFIWIBFSA-N

>  <submitter_email>  (331) 
None

>  <ref_mols>  (331) 
c0398a,c0585a

>  <submitter_name>  (331) 
None

$$$$
QKVLIJJEBUOOBM-ZCFIWIBFSA-N
     RDKit          3D

 19 20  0  0  0  0  0  0  0  0999 V2000
   15.9430    2.2625   14.1814 C   0  0  0  0  0  0  0  0  0  0  0  0
   16.0540    2.5366   15.6712 C   0  0  2  0  0  0  0  0  0  0  0  0
   16.8030    3.8537   15.7840 C   0  0  0  0  0  0  0  0  0  0  0  0
   16.2540    4.9333   15.5725 O   0  0  0  0  0  0  0  0  0  0  0  0
   18.1645    3.7597   15.9091 N   0  0  0  0  0  0  0  0  0  0  0  0
   18.8512    2.5798   15.8130 C   0  0  0  0  0  0  0  0  0  0  0  0
   20.0116    2.5490   15.4181 O   0  0  0  0  0  0  0  0  0  0  0  0
   18.1134    1.3201   16.2390 C   0  0  0  0  0  0  0  0  0  0  0  0
   16.6883    1.4957   16.4832 N   0  0  0  0  0  0  0  0  0  0  0  0
   16.0021    0.2844   16.5944 C   0  0  0  0  0  0  0  0  0  0  0  0
   15.4465   -0.3076   15.6831 O   0  0  0  0  0  0  0  0  0  0  0  0
   16.0901   -0.3990   17.8855 C   0  0  0  0  0  0  0  0  0  0  0  0
   15.3661    0.0762   18.9746 C   0  0  0  0  0  0  0  0  0  0  0  0
   15.4072   -0.6500   20.1554 C   0  0  0  0  0  0  0  0  0  0  0  0
   14.7085   -0.2193   21.2140 F   0  0  0  0  0  0  0  0  0  0  0  0
   16.1549   -1.8204   20.2634 C   0  0  0  0  0  0  0  0  0  0  0  0
   16.8560   -2.2862   19.1552 C   0  0  0  0  0  0  0  0  0  0  0  0
   17.8603   -3.8796   19.2704 Br  0  0  0  0  0  0  0  0  0  0  0  0
   16.8243   -1.5852   17.9566 C   0  0  0  0  0  0  0  0  0  0  0  0
  2  1  1  6
  2  3  1  0
  3  4  2  0
  3  5  1  0
  5  6  1  0
  6  7  2  0
  6  8  1  0
  8  9  1  0
  9 10  1  0
 10 11  2  0
 10 12  1  0
 12 13  2  0
 13 14  1  0
 14 15  1  0
 14 16  2  0
 16 17  1  0
 17 18  1  0
 17 19  2  0
  9  2  1  0
 19 12  1  0
M  END
>  <original ID>  (332) 
QKVLIJJEBUOOBM-ZCFIWIBFSA-N

>  <generation_date>  (332) 
None

>  <alias>  (332) 
None

>  <original SMILES>  (332) 
C[C@@H]1C(=O)NC(=O)CN1C(=O)c1cc(F)cc(Br)c1

>  <HIPPO ID>  (332) 
79615

>  <tags>  (332) 
[]

>  <ref_pdb>  (332) 
c0300a

>  <method>  (332) 
None

>  <ref_url>  (332) 
None

>  <inchikey>  (332) 
QKVLIJJEBUOOBM-ZCFIWIBFSA-N

>  <submitter_email>  (332) 
None

>  <ref_mols>  (332) 
c0398a,c0585a

>  <submitter_name>  (332) 
None

$$$$
LKHOWMCZLYMBLO-ZDUSSCGKSA-N
     RDKit          3D

 19 20  0  0  0  0  0  0  0  0999 V2000
   19.0630    0.1356   16.4626 C   0  0  0  0  0  0  0  0  0  0  0  0
   19.2715    1.6319   16.5152 C   0  0  0  0  0  0  0  0  0  0  0  0
   18.9934    2.3285   15.1881 C   0  0  0  0  0  0  0  0  0  0  0  0
   17.6062    2.9808   15.0033 C   0  0  1  0  0  0  0  0  0  0  0  0
   16.4374    1.9726   15.0614 C   0  0  0  0  0  0  0  0  0  0  0  0
   16.0924    1.5834   16.4244 N   0  0  0  0  0  0  0  0  0  0  0  0
   15.6906    0.2662   16.6332 C   0  0  0  0  0  0  0  0  0  0  0  0
   15.4577   -0.5252   15.7210 O   0  0  0  0  0  0  0  0  0  0  0  0
   15.7443   -0.3393   17.9721 C   0  0  0  0  0  0  0  0  0  0  0  0
   15.0426    0.1242   19.0735 C   0  0  0  0  0  0  0  0  0  0  0  0
   15.1916   -0.5498   20.2794 C   0  0  0  0  0  0  0  0  0  0  0  0
   14.5305   -0.1040   21.3555 F   0  0  0  0  0  0  0  0  0  0  0  0
   15.9982   -1.6811   20.4023 C   0  0  0  0  0  0  0  0  0  0  0  0
   16.6494   -2.1691   19.2803 C   0  0  0  0  0  0  0  0  0  0  0  0
   17.7167   -3.7231   19.3730 Br  0  0  0  0  0  0  0  0  0  0  0  0
   16.5208   -1.5073   18.0695 C   0  0  0  0  0  0  0  0  0  0  0  0
   16.0115    2.6771   17.3836 C   0  0  0  0  0  0  0  0  0  0  0  0
   16.2463    4.0546   16.7250 C   0  0  0  0  0  0  0  0  0  0  0  0
   17.4705    4.1429   15.9183 N   0  0  0  0  0  0  0  0  0  0  0  0
  1  2  1  0
  2  3  1  0
  4  3  1  1
  4  5  1  0
  5  6  1  0
  6  7  1  0
  7  8  2  0
  7  9  1  0
  9 10  2  0
 10 11  1  0
 11 12  1  0
 11 13  2  0
 13 14  1  0
 14 15  1  0
 14 16  2  0
  6 17  1  0
 17 18  1  0
 18 19  1  0
 19  4  1  0
 16  9  1  0
M  END
>  <original ID>  (333) 
LKHOWMCZLYMBLO-ZDUSSCGKSA-N

>  <generation_date>  (333) 
None

>  <alias>  (333) 
None

>  <original SMILES>  (333) 
CCC[C@H]1CN(C(=O)c2cc(F)cc(Br)c2)CCN1

>  <HIPPO ID>  (333) 
79636

>  <tags>  (333) 
[]

>  <ref_pdb>  (333) 
c0300a

>  <method>  (333) 
None

>  <ref_url>  (333) 
None

>  <inchikey>  (333) 
LKHOWMCZLYMBLO-ZDUSSCGKSA-N

>  <submitter_email>  (333) 
None

>  <ref_mols>  (333) 
c0398a,c0585a

>  <submitter_name>  (333) 
None

$$$$
LKHOWMCZLYMBLO-CYBMUJFWSA-N
     RDKit          3D

 19 20  0  0  0  0  0  0  0  0999 V2000
   19.1890    0.7022   18.2735 C   0  0  0  0  0  0  0  0  0  0  0  0
   19.0925    0.5856   16.7654 C   0  0  0  0  0  0  0  0  0  0  0  0
   19.0790    1.9036   16.0087 C   0  0  0  0  0  0  0  0  0  0  0  0
   18.0387    2.9716   16.4030 C   0  0  2  0  0  0  0  0  0  0  0  0
   16.7473    2.4715   17.0921 C   0  0  0  0  0  0  0  0  0  0  0  0
   16.0107    1.6123   16.1985 N   0  0  0  0  0  0  0  0  0  0  0  0
   15.6795    0.2766   16.4271 C   0  0  0  0  0  0  0  0  0  0  0  0
   15.3118   -0.5056   15.5551 O   0  0  0  0  0  0  0  0  0  0  0  0
   15.7881   -0.3312   17.7652 C   0  0  0  0  0  0  0  0  0  0  0  0
   15.0871    0.1661   18.8592 C   0  0  0  0  0  0  0  0  0  0  0  0
   15.1917   -0.5056   20.0723 C   0  0  0  0  0  0  0  0  0  0  0  0
   14.5178   -0.0490   21.1366 F   0  0  0  0  0  0  0  0  0  0  0  0
   15.9763   -1.6489   20.2141 C   0  0  0  0  0  0  0  0  0  0  0  0
   16.6392   -2.1564   19.1053 C   0  0  0  0  0  0  0  0  0  0  0  0
   17.7029   -3.7089   19.2548 Br  0  0  0  0  0  0  0  0  0  0  0  0
   16.5310   -1.5168   17.8777 C   0  0  0  0  0  0  0  0  0  0  0  0
   15.6857    2.2573   14.9253 C   0  0  0  0  0  0  0  0  0  0  0  0
   16.8622    3.0147   14.2769 C   0  0  0  0  0  0  0  0  0  0  0  0
   17.6997    3.8024   15.2121 N   0  0  0  0  0  0  0  0  0  0  0  0
  1  2  1  0
  2  3  1  0
  4  3  1  6
  4  5  1  0
  5  6  1  0
  6  7  1  0
  7  8  2  0
  7  9  1  0
  9 10  2  0
 10 11  1  0
 11 12  1  0
 11 13  2  0
 13 14  1  0
 14 15  1  0
 14 16  2  0
  6 17  1  0
 17 18  1  0
 18 19  1  0
 19  4  1  0
 16  9  1  0
M  END
>  <original ID>  (334) 
LKHOWMCZLYMBLO-CYBMUJFWSA-N

>  <generation_date>  (334) 
None

>  <alias>  (334) 
None

>  <original SMILES>  (334) 
CCC[C@@H]1CN(C(=O)c2cc(F)cc(Br)c2)CCN1

>  <HIPPO ID>  (334) 
79637

>  <tags>  (334) 
[]

>  <ref_pdb>  (334) 
c0300a

>  <method>  (334) 
None

>  <ref_url>  (334) 
None

>  <inchikey>  (334) 
LKHOWMCZLYMBLO-CYBMUJFWSA-N

>  <submitter_email>  (334) 
None

>  <ref_mols>  (334) 
c0398a,c0585a

>  <submitter_name>  (334) 
None

$$$$
LWOQVFRKCDKNCY-ZDUSSCGKSA-N
     RDKit          3D

 19 20  0  0  0  0  0  0  0  0999 V2000
   19.7976    1.8344   15.2091 C   0  0  0  0  0  0  0  0  0  0  0  0
   18.6631    1.5488   16.1732 C   0  0  0  0  0  0  0  0  0  0  0  0
   18.8352    0.1511   16.7486 C   0  0  0  0  0  0  0  0  0  0  0  0
   17.2635    1.7557   15.5235 C   0  0  2  0  0  0  0  0  0  0  0  0
   17.1183    3.1024   14.7822 C   0  0  0  0  0  0  0  0  0  0  0  0
   17.1483    4.2588   15.6974 N   0  0  0  0  0  0  0  0  0  0  0  0
   16.0596    4.0886   16.6769 C   0  0  0  0  0  0  0  0  0  0  0  0
   16.0601    2.7431   17.4470 C   0  0  0  0  0  0  0  0  0  0  0  0
   16.2133    1.6070   16.5474 N   0  0  0  0  0  0  0  0  0  0  0  0
   15.6731    0.3302   16.7020 C   0  0  0  0  0  0  0  0  0  0  0  0
   15.5077   -0.4336   15.7506 O   0  0  0  0  0  0  0  0  0  0  0  0
   15.6220   -0.3158   18.0260 C   0  0  0  0  0  0  0  0  0  0  0  0
   14.9743    0.1798   19.1430 C   0  0  0  0  0  0  0  0  0  0  0  0
   15.1292   -0.5007   20.3457 C   0  0  0  0  0  0  0  0  0  0  0  0
   14.5118   -0.0313   21.4374 F   0  0  0  0  0  0  0  0  0  0  0  0
   15.9051   -1.6556   20.4566 C   0  0  0  0  0  0  0  0  0  0  0  0
   16.4986   -2.1783   19.3209 C   0  0  0  0  0  0  0  0  0  0  0  0
   17.5611   -3.7368   19.3985 Br  0  0  0  0  0  0  0  0  0  0  0  0
   16.3386   -1.5274   18.1094 C   0  0  0  0  0  0  0  0  0  0  0  0
  1  2  1  0
  2  3  1  0
  4  2  1  1
  4  5  1  0
  5  6  1  0
  6  7  1  0
  7  8  1  0
  8  9  1  0
  9 10  1  0
 10 11  2  0
 10 12  1  0
 12 13  2  0
 13 14  1  0
 14 15  1  0
 14 16  2  0
 16 17  1  0
 17 18  1  0
 17 19  2  0
  9  4  1  0
 19 12  1  0
M  END
>  <original ID>  (335) 
LWOQVFRKCDKNCY-ZDUSSCGKSA-N

>  <generation_date>  (335) 
None

>  <alias>  (335) 
None

>  <original SMILES>  (335) 
CC(C)[C@@H]1CNCCN1C(=O)c1cc(F)cc(Br)c1

>  <HIPPO ID>  (335) 
79656

>  <tags>  (335) 
[]

>  <ref_pdb>  (335) 
c0300a

>  <method>  (335) 
None

>  <ref_url>  (335) 
None

>  <inchikey>  (335) 
LWOQVFRKCDKNCY-ZDUSSCGKSA-N

>  <submitter_email>  (335) 
None

>  <ref_mols>  (335) 
c0398a,c0585a

>  <submitter_name>  (335) 
None

$$$$
LWOQVFRKCDKNCY-CYBMUJFWSA-N
     RDKit          3D

 19 20  0  0  0  0  0  0  0  0999 V2000
   18.5310    1.3603   18.5472 C   0  0  0  0  0  0  0  0  0  0  0  0
   18.6497    1.1183   17.0369 C   0  0  0  0  0  0  0  0  0  0  0  0
   20.1366    1.0447   16.6983 C   0  0  0  0  0  0  0  0  0  0  0  0
   17.8443    2.1776   16.2565 C   0  0  1  0  0  0  0  0  0  0  0  0
   18.5942    2.6152   14.9567 C   0  0  0  0  0  0  0  0  0  0  0  0
   17.9060    3.6340   14.1535 N   0  0  0  0  0  0  0  0  0  0  0  0
   16.5804    3.1130   13.8256 C   0  0  0  0  0  0  0  0  0  0  0  0
   15.7958    2.7303   15.0750 C   0  0  0  0  0  0  0  0  0  0  0  0
   16.4457    1.7405   15.9611 N   0  0  0  0  0  0  0  0  0  0  0  0
   15.5961    1.5042   17.0783 C   0  0  0  0  0  0  0  0  0  0  0  0
   14.8809    2.4224   17.4825 O   0  0  0  0  0  0  0  0  0  0  0  0
   15.5922    0.2638   17.9175 C   0  0  0  0  0  0  0  0  0  0  0  0
   14.9630    0.4057   19.1682 C   0  0  0  0  0  0  0  0  0  0  0  0
   15.1311   -0.5429   20.1591 C   0  0  0  0  0  0  0  0  0  0  0  0
   14.6031   -0.3184   21.3677 F   0  0  0  0  0  0  0  0  0  0  0  0
   15.9165   -1.6568   19.9473 C   0  0  0  0  0  0  0  0  0  0  0  0
   16.4954   -1.8324   18.6952 C   0  0  0  0  0  0  0  0  0  0  0  0
   17.7626   -3.2220   18.5256 Br  0  0  0  0  0  0  0  0  0  0  0  0
   16.2752   -0.9224   17.6483 C   0  0  0  0  0  0  0  0  0  0  0  0
  1  2  1  0
  2  3  1  0
  4  2  1  6
  4  5  1  0
  5  6  1  0
  6  7  1  0
  7  8  1  0
  8  9  1  0
  9 10  1  0
 10 11  2  0
 10 12  1  0
 12 13  2  0
 13 14  1  0
 14 15  1  0
 14 16  2  0
 16 17  1  0
 17 18  1  0
 17 19  2  0
  9  4  1  0
 19 12  1  0
M  END
>  <original ID>  (336) 
LWOQVFRKCDKNCY-CYBMUJFWSA-N

>  <generation_date>  (336) 
None

>  <alias>  (336) 
None

>  <original SMILES>  (336) 
CC(C)[C@H]1CNCCN1C(=O)c1cc(F)cc(Br)c1

>  <HIPPO ID>  (336) 
79657

>  <tags>  (336) 
[]

>  <ref_pdb>  (336) 
c0300a

>  <method>  (336) 
None

>  <ref_url>  (336) 
None

>  <inchikey>  (336) 
LWOQVFRKCDKNCY-CYBMUJFWSA-N

>  <submitter_email>  (336) 
None

>  <ref_mols>  (336) 
c0398a,c0585a

>  <submitter_name>  (336) 
None

$$$$
VKKMONCXNDMMLB-SNVBAGLBSA-N
     RDKit          3D

 19 20  0  0  0  0  0  0  0  0999 V2000
   19.6700   -0.3296   16.5356 C   0  0  0  0  0  0  0  0  0  0  0  0
   20.0396    1.1474   16.5951 C   0  0  0  0  0  0  0  0  0  0  0  0
   19.6150    1.9699   15.3774 C   0  0  0  0  0  0  0  0  0  0  0  0
   18.2203    2.5573   15.5067 C   0  0  2  0  0  0  0  0  0  0  0  0
   17.2304    1.4654   15.9091 C   0  0  0  0  0  0  0  0  0  0  0  0
   15.9318    1.9778   16.2066 N   0  0  0  0  0  0  0  0  0  0  0  0
   15.2836    1.6277   17.3899 C   0  0  0  0  0  0  0  0  0  0  0  0
   14.5795    2.4639   17.9452 O   0  0  0  0  0  0  0  0  0  0  0  0
   15.4896    0.3253   18.0881 C   0  0  0  0  0  0  0  0  0  0  0  0
   15.9963   -0.8349   17.4869 C   0  0  0  0  0  0  0  0  0  0  0  0
   16.3239   -1.9552   18.2625 C   0  0  0  0  0  0  0  0  0  0  0  0
   16.0664   -1.9598   19.6296 C   0  0  0  0  0  0  0  0  0  0  0  0
   15.4733   -0.8455   20.2031 C   0  0  0  0  0  0  0  0  0  0  0  0
   15.2001   -0.8410   21.5140 F   0  0  0  0  0  0  0  0  0  0  0  0
   15.1823    0.2806   19.4487 C   0  0  0  0  0  0  0  0  0  0  0  0
   14.6301    1.3252   20.0820 F   0  0  0  0  0  0  0  0  0  0  0  0
   15.6336    3.2695   15.5839 C   0  0  0  0  0  0  0  0  0  0  0  0
   16.3589    3.4554   14.2368 C   0  0  0  0  0  0  0  0  0  0  0  0
   17.8272    3.2828   14.2822 N   0  0  0  0  0  0  0  0  0  0  0  0
  1  2  1  0
  2  3  1  0
  4  3  1  6
  4  5  1  0
  5  6  1  0
  6  7  1  0
  7  8  2  0
  7  9  1  0
  9 10  2  0
 10 11  1  0
 11 12  2  0
 12 13  1  0
 13 14  1  0
 13 15  2  0
 15 16  1  0
  6 17  1  0
 17 18  1  0
 18 19  1  0
 19  4  1  0
 15  9  1  0
M  END
>  <original ID>  (337) 
VKKMONCXNDMMLB-SNVBAGLBSA-N

>  <generation_date>  (337) 
None

>  <alias>  (337) 
None

>  <original SMILES>  (337) 
CCC[C@@H]1CN(C(=O)c2cccc(F)c2F)CCN1

>  <HIPPO ID>  (337) 
80982

>  <tags>  (337) 
[]

>  <ref_pdb>  (337) 
c0300a

>  <method>  (337) 
None

>  <ref_url>  (337) 
None

>  <inchikey>  (337) 
VKKMONCXNDMMLB-SNVBAGLBSA-N

>  <submitter_email>  (337) 
None

>  <ref_mols>  (337) 
c0398a,c0585a

>  <submitter_name>  (337) 
None

$$$$
VKKMONCXNDMMLB-SNVBAGLBSA-N
     RDKit          3D

 19 20  0  0  0  0  0  0  0  0999 V2000
   19.1351    0.8076   18.2959 C   0  0  0  0  0  0  0  0  0  0  0  0
   19.0643    0.6125   16.7964 C   0  0  0  0  0  0  0  0  0  0  0  0
   19.0332    1.8915   15.9764 C   0  0  0  0  0  0  0  0  0  0  0  0
   18.0453    3.0082   16.3781 C   0  0  2  0  0  0  0  0  0  0  0  0
   16.7486    2.5642   17.0930 C   0  0  0  0  0  0  0  0  0  0  0  0
   15.9978    1.6931   16.2238 N   0  0  0  0  0  0  0  0  0  0  0  0
   15.6825    0.3576   16.4633 C   0  0  0  0  0  0  0  0  0  0  0  0
   15.3733   -0.4314   15.5730 O   0  0  0  0  0  0  0  0  0  0  0  0
   15.7593   -0.2542   17.8009 C   0  0  0  0  0  0  0  0  0  0  0  0
   16.4272   -1.4918   17.9066 C   0  0  0  0  0  0  0  0  0  0  0  0
   16.5109   -2.1596   19.1259 C   0  0  0  0  0  0  0  0  0  0  0  0
   15.8881   -1.6119   20.2398 C   0  0  0  0  0  0  0  0  0  0  0  0
   15.1774   -0.4175   20.1187 C   0  0  0  0  0  0  0  0  0  0  0  0
   14.5485    0.0613   21.2019 F   0  0  0  0  0  0  0  0  0  0  0  0
   15.1126    0.2711   18.9101 C   0  0  0  0  0  0  0  0  0  0  0  0
   14.4435    1.4319   18.8486 F   0  0  0  0  0  0  0  0  0  0  0  0
   15.6560    2.3283   14.9498 C   0  0  0  0  0  0  0  0  0  0  0  0
   16.8250    3.0729   14.2734 C   0  0  0  0  0  0  0  0  0  0  0  0
   17.7071    3.8321   15.1868 N   0  0  0  0  0  0  0  0  0  0  0  0
  1  2  1  0
  2  3  1  0
  4  3  1  6
  4  5  1  0
  5  6  1  0
  6  7  1  0
  7  8  2  0
  7  9  1  0
  9 10  2  0
 10 11  1  0
 11 12  2  0
 12 13  1  0
 13 14  1  0
 13 15  2  0
 15 16  1  0
  6 17  1  0
 17 18  1  0
 18 19  1  0
 19  4  1  0
 15  9  1  0
M  END
>  <original ID>  (338) 
VKKMONCXNDMMLB-SNVBAGLBSA-N

>  <generation_date>  (338) 
None

>  <alias>  (338) 
None

>  <original SMILES>  (338) 
CCC[C@@H]1CN(C(=O)c2cccc(F)c2F)CCN1

>  <HIPPO ID>  (338) 
80983

>  <tags>  (338) 
[]

>  <ref_pdb>  (338) 
c0300a

>  <method>  (338) 
None

>  <ref_url>  (338) 
None

>  <inchikey>  (338) 
VKKMONCXNDMMLB-SNVBAGLBSA-N

>  <submitter_email>  (338) 
None

>  <ref_mols>  (338) 
c0398a,c0585a

>  <submitter_name>  (338) 
None

$$$$
IUOJRJWBFBJLDB-LBPRGKRZSA-N
     RDKit          3D

 19 20  0  0  0  0  0  0  0  0999 V2000
   18.5210   -0.8469   16.3569 C   0  0  0  0  0  0  0  0  0  0  0  0
   18.8491    0.6491   16.4289 C   0  0  0  0  0  0  0  0  0  0  0  0
   20.2237    0.9538   15.8598 C   0  0  0  0  0  0  0  0  0  0  0  0
   17.6903    1.5364   15.9295 C   0  0  2  0  0  0  0  0  0  0  0  0
   18.1223    2.5623   14.8298 C   0  0  0  0  0  0  0  0  0  0  0  0
   17.0898    3.5356   14.4697 N   0  0  0  0  0  0  0  0  0  0  0  0
   16.4885    4.1480   15.6596 C   0  0  0  0  0  0  0  0  0  0  0  0
   17.0572    3.6501   17.0079 C   0  0  0  0  0  0  0  0  0  0  0  0
   17.1018    2.1891   17.1272 N   0  0  0  0  0  0  0  0  0  0  0  0
   15.8888    1.6530   17.5813 C   0  0  0  0  0  0  0  0  0  0  0  0
   14.8418    2.1639   17.2161 O   0  0  0  0  0  0  0  0  0  0  0  0
   15.8678    0.6455   18.6756 C   0  0  0  0  0  0  0  0  0  0  0  0
   16.8889   -0.2560   18.9864 C   0  0  0  0  0  0  0  0  0  0  0  0
   16.7962   -1.1853   20.0237 C   0  0  0  0  0  0  0  0  0  0  0  0
   15.7042   -1.1343   20.8620 C   0  0  0  0  0  0  0  0  0  0  0  0
   14.7255   -0.1748   20.6269 C   0  0  0  0  0  0  0  0  0  0  0  0
   13.7433   -0.0118   21.5207 F   0  0  0  0  0  0  0  0  0  0  0  0
   14.7800    0.6785   19.5356 C   0  0  0  0  0  0  0  0  0  0  0  0
   13.8337    1.6197   19.4321 F   0  0  0  0  0  0  0  0  0  0  0  0
  1  2  1  0
  2  3  1  0
  4  2  1  1
  4  5  1  0
  5  6  1  0
  6  7  1  0
  7  8  1  0
  8  9  1  0
  9 10  1  0
 10 11  2  0
 10 12  1  0
 12 13  2  0
 13 14  1  0
 14 15  2  0
 15 16  1  0
 16 17  1  0
 16 18  2  0
 18 19  1  0
  9  4  1  0
 18 12  1  0
M  END
>  <original ID>  (339) 
IUOJRJWBFBJLDB-LBPRGKRZSA-N

>  <generation_date>  (339) 
None

>  <alias>  (339) 
None

>  <original SMILES>  (339) 
CC(C)[C@@H]1CNCCN1C(=O)c1cccc(F)c1F

>  <HIPPO ID>  (339) 
81008

>  <tags>  (339) 
[]

>  <ref_pdb>  (339) 
c0300a

>  <method>  (339) 
None

>  <ref_url>  (339) 
None

>  <inchikey>  (339) 
IUOJRJWBFBJLDB-LBPRGKRZSA-N

>  <submitter_email>  (339) 
None

>  <ref_mols>  (339) 
c0398a,c0585a

>  <submitter_name>  (339) 
None

$$$$
IUOJRJWBFBJLDB-GFCCVEGCSA-N
     RDKit          3D

 19 20  0  0  0  0  0  0  0  0999 V2000
   20.2317    0.8986   15.7334 C   0  0  0  0  0  0  0  0  0  0  0  0
   18.7068    0.9381   15.7579 C   0  0  0  0  0  0  0  0  0  0  0  0
   18.2172   -0.3677   16.3655 C   0  0  0  0  0  0  0  0  0  0  0  0
   18.1899    2.2289   16.4213 C   0  0  1  0  0  0  0  0  0  0  0  0
   18.7234    3.4925   15.6711 C   0  0  0  0  0  0  0  0  0  0  0  0
   18.2451    3.6473   14.2859 N   0  0  0  0  0  0  0  0  0  0  0  0
   16.8122    3.3066   14.1875 C   0  0  0  0  0  0  0  0  0  0  0  0
   16.0814    3.2026   15.5281 C   0  0  0  0  0  0  0  0  0  0  0  0
   16.7219    2.2788   16.4756 N   0  0  0  0  0  0  0  0  0  0  0  0
   15.9414    1.9909   17.5920 C   0  0  0  0  0  0  0  0  0  0  0  0
   14.9345    2.6636   17.8110 O   0  0  0  0  0  0  0  0  0  0  0  0
   16.2063    0.8888   18.5378 C   0  0  0  0  0  0  0  0  0  0  0  0
   17.4216    0.5508   19.1401 C   0  0  0  0  0  0  0  0  0  0  0  0
   17.5378   -0.5915   19.9508 C   0  0  0  0  0  0  0  0  0  0  0  0
   16.4179   -1.3538   20.2357 C   0  0  0  0  0  0  0  0  0  0  0  0
   15.1998   -0.9348   19.7307 C   0  0  0  0  0  0  0  0  0  0  0  0
   14.0987   -1.5768   20.0917 F   0  0  0  0  0  0  0  0  0  0  0  0
   15.0854    0.1625   18.9002 C   0  0  0  0  0  0  0  0  0  0  0  0
   13.8718    0.5441   18.4975 F   0  0  0  0  0  0  0  0  0  0  0  0
  1  2  1  0
  2  3  1  0
  4  2  1  6
  4  5  1  0
  5  6  1  0
  6  7  1  0
  7  8  1  0
  8  9  1  0
  9 10  1  0
 10 11  2  0
 10 12  1  0
 12 13  2  0
 13 14  1  0
 14 15  2  0
 15 16  1  0
 16 17  1  0
 16 18  2  0
 18 19  1  0
  9  4  1  0
 18 12  1  0
M  END
>  <original ID>  (340) 
IUOJRJWBFBJLDB-GFCCVEGCSA-N

>  <generation_date>  (340) 
None

>  <alias>  (340) 
None

>  <original SMILES>  (340) 
CC(C)[C@H]1CNCCN1C(=O)c1cccc(F)c1F

>  <HIPPO ID>  (340) 
81009

>  <tags>  (340) 
[]

>  <ref_pdb>  (340) 
c0300a

>  <method>  (340) 
None

>  <ref_url>  (340) 
None

>  <inchikey>  (340) 
IUOJRJWBFBJLDB-GFCCVEGCSA-N

>  <submitter_email>  (340) 
None

>  <ref_mols>  (340) 
c0398a,c0585a

>  <submitter_name>  (340) 
None

$$$$
NLPTVUAYEIIARM-ZCFIWIBFSA-N
     RDKit          3D

 19 20  0  0  0  0  0  0  0  0999 V2000
   15.9138    2.2430   14.2018 C   0  0  0  0  0  0  0  0  0  0  0  0
   16.0531    2.5442   15.6855 C   0  0  2  0  0  0  0  0  0  0  0  0
   16.8259    3.8512   15.7458 C   0  0  0  0  0  0  0  0  0  0  0  0
   16.2971    4.9288   15.4781 O   0  0  0  0  0  0  0  0  0  0  0  0
   18.1865    3.7391   15.8728 N   0  0  0  0  0  0  0  0  0  0  0  0
   18.8476    2.5453   15.7680 C   0  0  0  0  0  0  0  0  0  0  0  0
   19.9912    2.4829   15.3288 O   0  0  0  0  0  0  0  0  0  0  0  0
   18.1012    1.3065   16.2384 C   0  0  0  0  0  0  0  0  0  0  0  0
   16.6855    1.5092   16.5083 N   0  0  0  0  0  0  0  0  0  0  0  0
   15.9805    0.3076   16.6338 C   0  0  0  0  0  0  0  0  0  0  0  0
   15.4777   -0.3078   15.7056 O   0  0  0  0  0  0  0  0  0  0  0  0
   16.0398   -0.3652   17.9283 C   0  0  0  0  0  0  0  0  0  0  0  0
   16.7253   -1.5861   18.0115 C   0  0  0  0  0  0  0  0  0  0  0  0
   16.7467   -2.2852   19.2152 C   0  0  0  0  0  0  0  0  0  0  0  0
   16.0659   -1.7713   20.3174 C   0  0  0  0  0  0  0  0  0  0  0  0
   15.3586   -0.5733   20.2057 C   0  0  0  0  0  0  0  0  0  0  0  0
   14.6851   -0.1180   21.2716 F   0  0  0  0  0  0  0  0  0  0  0  0
   15.3449    0.1414   19.0165 C   0  0  0  0  0  0  0  0  0  0  0  0
   14.6674    1.2970   18.9376 F   0  0  0  0  0  0  0  0  0  0  0  0
  2  1  1  6
  2  3  1  0
  3  4  2  0
  3  5  1  0
  5  6  1  0
  6  7  2  0
  6  8  1  0
  8  9  1  0
  9 10  1  0
 10 11  2  0
 10 12  1  0
 12 13  2  0
 13 14  1  0
 14 15  2  0
 15 16  1  0
 16 17  1  0
 16 18  2  0
 18 19  1  0
  9  2  1  0
 18 12  1  0
M  END
>  <original ID>  (341) 
NLPTVUAYEIIARM-ZCFIWIBFSA-N

>  <generation_date>  (341) 
None

>  <alias>  (341) 
None

>  <original SMILES>  (341) 
C[C@@H]1C(=O)NC(=O)CN1C(=O)c1cccc(F)c1F

>  <HIPPO ID>  (341) 
81025

>  <tags>  (341) 
[]

>  <ref_pdb>  (341) 
c0300a

>  <method>  (341) 
None

>  <ref_url>  (341) 
None

>  <inchikey>  (341) 
NLPTVUAYEIIARM-ZCFIWIBFSA-N

>  <submitter_email>  (341) 
None

>  <ref_mols>  (341) 
c0398a,c0585a

>  <submitter_name>  (341) 
None

$$$$
NLPTVUAYEIIARM-ZCFIWIBFSA-N
     RDKit          3D

 19 20  0  0  0  0  0  0  0  0999 V2000
   15.9256    2.2625   14.2085 C   0  0  0  0  0  0  0  0  0  0  0  0
   16.0542    2.5523   15.6959 C   0  0  2  0  0  0  0  0  0  0  0  0
   16.8201    3.8624   15.7796 C   0  0  0  0  0  0  0  0  0  0  0  0
   16.2859    4.9439   15.5401 O   0  0  0  0  0  0  0  0  0  0  0  0
   18.1817    3.7538   15.9009 N   0  0  0  0  0  0  0  0  0  0  0  0
   18.8531    2.5651   15.8036 C   0  0  0  0  0  0  0  0  0  0  0  0
   20.0074    2.5155   15.3916 O   0  0  0  0  0  0  0  0  0  0  0  0
   18.1041    1.3157   16.2410 C   0  0  0  0  0  0  0  0  0  0  0  0
   16.6883    1.5140   16.5128 N   0  0  0  0  0  0  0  0  0  0  0  0
   15.9845    0.3116   16.6328 C   0  0  0  0  0  0  0  0  0  0  0  0
   15.4826   -0.3000   15.7017 O   0  0  0  0  0  0  0  0  0  0  0  0
   16.0414   -0.3646   17.9258 C   0  0  0  0  0  0  0  0  0  0  0  0
   16.7240   -1.5872   18.0067 C   0  0  0  0  0  0  0  0  0  0  0  0
   16.7446   -2.2882   19.2093 C   0  0  0  0  0  0  0  0  0  0  0  0
   16.0656   -1.7745   20.3128 C   0  0  0  0  0  0  0  0  0  0  0  0
   15.3609   -0.5748   20.2034 C   0  0  0  0  0  0  0  0  0  0  0  0
   14.6891   -0.1197   21.2704 F   0  0  0  0  0  0  0  0  0  0  0  0
   15.3485    0.1420   19.0154 C   0  0  0  0  0  0  0  0  0  0  0  0
   14.6745    1.2998   18.9392 F   0  0  0  0  0  0  0  0  0  0  0  0
  2  1  1  6
  2  3  1  0
  3  4  2  0
  3  5  1  0
  5  6  1  0
  6  7  2  0
  6  8  1  0
  8  9  1  0
  9 10  1  0
 10 11  2  0
 10 12  1  0
 12 13  2  0
 13 14  1  0
 14 15  2  0
 15 16  1  0
 16 17  1  0
 16 18  2  0
 18 19  1  0
  9  2  1  0
 18 12  1  0
M  END
>  <original ID>  (342) 
NLPTVUAYEIIARM-ZCFIWIBFSA-N

>  <generation_date>  (342) 
None

>  <alias>  (342) 
None

>  <original SMILES>  (342) 
C[C@@H]1C(=O)NC(=O)CN1C(=O)c1cccc(F)c1F

>  <HIPPO ID>  (342) 
81026

>  <tags>  (342) 
[]

>  <ref_pdb>  (342) 
c0300a

>  <method>  (342) 
None

>  <ref_url>  (342) 
None

>  <inchikey>  (342) 
NLPTVUAYEIIARM-ZCFIWIBFSA-N

>  <submitter_email>  (342) 
None

>  <ref_mols>  (342) 
c0398a,c0585a

>  <submitter_name>  (342) 
None

$$$$
BUBBNUOODUXAQP-CQSZACIVSA-N
     RDKit          3D

 19 20  0  0  0  0  0  0  0  0999 V2000
   14.6394    1.6698   19.4359 C   0  0  0  0  0  0  0  0  0  0  0  0
   15.3015    0.3489   19.2342 C   0  0  0  0  0  0  0  0  0  0  0  0
   15.3687   -0.5396   20.3149 C   0  0  0  0  0  0  0  0  0  0  0  0
   14.8794   -0.1726   21.5085 F   0  0  0  0  0  0  0  0  0  0  0  0
   15.9178   -1.8121   20.2023 C   0  0  0  0  0  0  0  0  0  0  0  0
   16.3265   -2.2673   18.9624 C   0  0  0  0  0  0  0  0  0  0  0  0
   16.2309   -1.4155   17.8652 C   0  0  0  0  0  0  0  0  0  0  0  0
   15.8160   -0.0761   18.0043 C   0  0  0  0  0  0  0  0  0  0  0  0
   16.0155    0.7860   16.7964 C   0  0  0  0  0  0  0  0  0  0  0  0
   15.7773    0.3161   15.6902 O   0  0  0  0  0  0  0  0  0  0  0  0
   16.7073    2.0075   16.9811 N   0  0  0  0  0  0  0  0  0  0  0  0
   15.8781    3.1741   16.6921 C   0  0  0  0  0  0  0  0  0  0  0  0
   15.6772    3.4387   15.1822 C   0  0  0  0  0  0  0  0  0  0  0  0
   16.9450    3.5856   14.4483 N   0  0  0  0  0  0  0  0  0  0  0  0
   17.7959    2.4066   14.7335 C   0  0  0  0  0  0  0  0  0  0  0  0
   17.9937    2.1896   16.2628 C   0  0  2  0  0  0  0  0  0  0  0  0
   19.1307    1.2235   16.6521 C   0  0  0  0  0  0  0  0  0  0  0  0
   18.8708   -0.2576   16.5092 C   0  0  0  0  0  0  0  0  0  0  0  0
   20.4072    1.5480   15.8878 C   0  0  0  0  0  0  0  0  0  0  0  0
  1  2  1  0
  2  3  2  0
  3  4  1  0
  3  5  1  0
  5  6  2  0
  6  7  1  0
  7  8  2  0
  8  9  1  0
  9 10  2  0
  9 11  1  0
 11 12  1  0
 12 13  1  0
 13 14  1  0
 14 15  1  0
 15 16  1  0
 16 17  1  6
 17 18  1  0
 17 19  1  0
  8  2  1  0
 16 11  1  0
M  END
>  <original ID>  (343) 
BUBBNUOODUXAQP-CQSZACIVSA-N

>  <generation_date>  (343) 
None

>  <alias>  (343) 
None

>  <original SMILES>  (343) 
Cc1c(F)cccc1C(=O)N1CCNC[C@@H]1C(C)C

>  <HIPPO ID>  (343) 
81328

>  <tags>  (343) 
[]

>  <ref_pdb>  (343) 
c0300a

>  <method>  (343) 
None

>  <ref_url>  (343) 
None

>  <inchikey>  (343) 
BUBBNUOODUXAQP-CQSZACIVSA-N

>  <submitter_email>  (343) 
None

>  <ref_mols>  (343) 
c0398a,c0585a

>  <submitter_name>  (343) 
None

$$$$
BUBBNUOODUXAQP-AWEZNQCLSA-N
     RDKit          3D

 19 20  0  0  0  0  0  0  0  0999 V2000
   14.0965    1.1343   19.3535 C   0  0  0  0  0  0  0  0  0  0  0  0
   15.1034    0.0409   19.2741 C   0  0  0  0  0  0  0  0  0  0  0  0
   15.3834   -0.6675   20.4478 C   0  0  0  0  0  0  0  0  0  0  0  0
   14.8014   -0.2845   21.5938 F   0  0  0  0  0  0  0  0  0  0  0  0
   16.2266   -1.7750   20.4777 C   0  0  0  0  0  0  0  0  0  0  0  0
   16.8269   -2.2061   19.3076 C   0  0  0  0  0  0  0  0  0  0  0  0
   16.5942   -1.4961   18.1345 C   0  0  0  0  0  0  0  0  0  0  0  0
   15.7565   -0.3534   18.1066 C   0  0  0  0  0  0  0  0  0  0  0  0
   15.6639    0.2690   16.7612 C   0  0  0  0  0  0  0  0  0  0  0  0
   15.4587   -0.5192   15.8344 O   0  0  0  0  0  0  0  0  0  0  0  0
   16.1612    1.5553   16.5164 N   0  0  0  0  0  0  0  0  0  0  0  0
   15.9430    2.7572   17.3153 C   0  0  0  0  0  0  0  0  0  0  0  0
   16.1823    4.0658   16.5287 C   0  0  0  0  0  0  0  0  0  0  0  0
   17.4469    4.0977   15.7819 N   0  0  0  0  0  0  0  0  0  0  0  0
   17.4581    2.9386   14.8826 C   0  0  0  0  0  0  0  0  0  0  0  0
   17.3277    1.5931   15.6314 C   0  0  1  0  0  0  0  0  0  0  0  0
   18.5913    1.0660   16.3670 C   0  0  0  0  0  0  0  0  0  0  0  0
   18.7441    1.4523   17.8420 C   0  0  0  0  0  0  0  0  0  0  0  0
   19.8794    1.4681   15.6636 C   0  0  0  0  0  0  0  0  0  0  0  0
  1  2  1  0
  2  3  2  0
  3  4  1  0
  3  5  1  0
  5  6  2  0
  6  7  1  0
  7  8  2  0
  8  9  1  0
  9 10  2  0
  9 11  1  0
 11 12  1  0
 12 13  1  0
 13 14  1  0
 14 15  1  0
 15 16  1  0
 16 17  1  1
 17 18  1  0
 17 19  1  0
  8  2  1  0
 16 11  1  0
M  END
>  <original ID>  (344) 
BUBBNUOODUXAQP-AWEZNQCLSA-N

>  <generation_date>  (344) 
None

>  <alias>  (344) 
None

>  <original SMILES>  (344) 
Cc1c(F)cccc1C(=O)N1CCNC[C@H]1C(C)C

>  <HIPPO ID>  (344) 
81329

>  <tags>  (344) 
[]

>  <ref_pdb>  (344) 
c0300a

>  <method>  (344) 
None

>  <ref_url>  (344) 
None

>  <inchikey>  (344) 
BUBBNUOODUXAQP-AWEZNQCLSA-N

>  <submitter_email>  (344) 
None

>  <ref_mols>  (344) 
c0398a,c0585a

>  <submitter_name>  (344) 
None

$$$$
YNWHSOXPDPETEL-GFCCVEGCSA-N
     RDKit          3D

 19 20  0  0  0  0  0  0  0  0999 V2000
   16.1483    1.8401   14.5691 C   0  0  0  0  0  0  0  0  0  0  0  0
   17.4626    2.4790   14.1761 C   0  0  0  0  0  0  0  0  0  0  0  0
   18.7028    1.9573   14.8886 C   0  0  0  0  0  0  0  0  0  0  0  0
   19.0401    2.5924   16.2382 C   0  0  2  0  0  0  0  0  0  0  0  0
   18.2738    1.9030   17.3918 C   0  0  0  0  0  0  0  0  0  0  0  0
   16.8894    2.3309   17.4387 N   0  0  0  0  0  0  0  0  0  0  0  0
   15.7787    1.5363   17.6853 C   0  0  0  0  0  0  0  0  0  0  0  0
   14.6477    1.9908   17.5777 O   0  0  0  0  0  0  0  0  0  0  0  0
   15.9261    0.2202   18.3266 C   0  0  0  0  0  0  0  0  0  0  0  0
   16.5453   -0.8627   17.6918 C   0  0  0  0  0  0  0  0  0  0  0  0
   16.7489   -2.0515   18.3932 C   0  0  0  0  0  0  0  0  0  0  0  0
   16.3214   -2.1559   19.7143 C   0  0  0  0  0  0  0  0  0  0  0  0
   15.6633   -1.0853   20.3108 C   0  0  0  0  0  0  0  0  0  0  0  0
   15.2841   -1.1864   21.5897 F   0  0  0  0  0  0  0  0  0  0  0  0
   15.4247    0.1016   19.6319 C   0  0  0  0  0  0  0  0  0  0  0  0
   14.6122    1.1845   20.2827 C   0  0  0  0  0  0  0  0  0  0  0  0
   16.6631    3.7739   17.3076 C   0  0  0  0  0  0  0  0  0  0  0  0
   17.9497    4.5910   17.1183 C   0  0  0  0  0  0  0  0  0  0  0  0
   18.8899    4.0561   16.1301 N   0  0  0  0  0  0  0  0  0  0  0  0
  1  2  1  0
  2  3  1  0
  4  3  1  6
  4  5  1  0
  5  6  1  0
  6  7  1  0
  7  8  2  0
  7  9  1  0
  9 10  2  0
 10 11  1  0
 11 12  2  0
 12 13  1  0
 13 14  1  0
 13 15  2  0
 15 16  1  0
  6 17  1  0
 17 18  1  0
 18 19  1  0
 19  4  1  0
 15  9  1  0
M  END
>  <original ID>  (345) 
YNWHSOXPDPETEL-GFCCVEGCSA-N

>  <generation_date>  (345) 
None

>  <alias>  (345) 
None

>  <original SMILES>  (345) 
CCC[C@@H]1CN(C(=O)c2cccc(F)c2C)CCN1

>  <HIPPO ID>  (345) 
81342

>  <tags>  (345) 
[]

>  <ref_pdb>  (345) 
c0300a

>  <method>  (345) 
None

>  <ref_url>  (345) 
None

>  <inchikey>  (345) 
YNWHSOXPDPETEL-GFCCVEGCSA-N

>  <submitter_email>  (345) 
None

>  <ref_mols>  (345) 
c0398a,c0585a

>  <submitter_name>  (345) 
None

$$$$
YNWHSOXPDPETEL-LBPRGKRZSA-N
     RDKit          3D

 19 20  0  0  0  0  0  0  0  0999 V2000
   19.3598   -0.3076   16.5793 C   0  0  0  0  0  0  0  0  0  0  0  0
   20.1978    0.9517   16.4331 C   0  0  0  0  0  0  0  0  0  0  0  0
   19.6762    2.0342   15.4934 C   0  0  0  0  0  0  0  0  0  0  0  0
   18.1816    2.1974   15.4735 C   0  0  1  0  0  0  0  0  0  0  0  0
   17.5509    2.3672   16.8804 C   0  0  0  0  0  0  0  0  0  0  0  0
   16.1135    2.1961   16.7653 N   0  0  0  0  0  0  0  0  0  0  0  0
   15.7652    0.8327   16.6242 C   0  0  0  0  0  0  0  0  0  0  0  0
   15.6263    0.2972   15.5311 O   0  0  0  0  0  0  0  0  0  0  0  0
   15.7688   -0.0296   17.8447 C   0  0  0  0  0  0  0  0  0  0  0  0
   16.3361   -1.3103   17.7025 C   0  0  0  0  0  0  0  0  0  0  0  0
   16.4702   -2.1682   18.7926 C   0  0  0  0  0  0  0  0  0  0  0  0
   15.9870   -1.7710   20.0296 C   0  0  0  0  0  0  0  0  0  0  0  0
   15.3555   -0.5368   20.1548 C   0  0  0  0  0  0  0  0  0  0  0  0
   14.8444   -0.2077   21.3509 F   0  0  0  0  0  0  0  0  0  0  0  0
   15.2296    0.3519   19.0800 C   0  0  0  0  0  0  0  0  0  0  0  0
   14.5157    1.6460   19.2918 C   0  0  0  0  0  0  0  0  0  0  0  0
   15.5736    3.1465   15.7813 C   0  0  0  0  0  0  0  0  0  0  0  0
   16.3372    3.2401   14.4400 C   0  0  0  0  0  0  0  0  0  0  0  0
   17.7989    3.3390   14.6070 N   0  0  0  0  0  0  0  0  0  0  0  0
  1  2  1  0
  2  3  1  0
  4  3  1  1
  4  5  1  0
  5  6  1  0
  6  7  1  0
  7  8  2  0
  7  9  1  0
  9 10  2  0
 10 11  1  0
 11 12  2  0
 12 13  1  0
 13 14  1  0
 13 15  2  0
 15 16  1  0
  6 17  1  0
 17 18  1  0
 18 19  1  0
 19  4  1  0
 15  9  1  0
M  END
>  <original ID>  (346) 
YNWHSOXPDPETEL-LBPRGKRZSA-N

>  <generation_date>  (346) 
None

>  <alias>  (346) 
None

>  <original SMILES>  (346) 
CCC[C@H]1CN(C(=O)c2cccc(F)c2C)CCN1

>  <HIPPO ID>  (346) 
81343

>  <tags>  (346) 
[]

>  <ref_pdb>  (346) 
c0300a

>  <method>  (346) 
None

>  <ref_url>  (346) 
None

>  <inchikey>  (346) 
YNWHSOXPDPETEL-LBPRGKRZSA-N

>  <submitter_email>  (346) 
None

>  <ref_mols>  (346) 
c0398a,c0585a

>  <submitter_name>  (346) 
None

$$$$
NPCKJCTUNGMQCB-MRVPVSSYSA-N
     RDKit          3D

 19 20  0  0  0  0  0  0  0  0999 V2000
   14.5330    1.2511   19.0211 C   0  0  0  0  0  0  0  0  0  0  0  0
   15.4103    0.0390   19.0615 C   0  0  0  0  0  0  0  0  0  0  0  0
   15.5067   -0.7184   20.2279 C   0  0  0  0  0  0  0  0  0  0  0  0
   14.8505   -0.3282   21.3304 F   0  0  0  0  0  0  0  0  0  0  0  0
   16.2626   -1.8889   20.2852 C   0  0  0  0  0  0  0  0  0  0  0  0
   16.9378   -2.3390   19.1545 C   0  0  0  0  0  0  0  0  0  0  0  0
   16.8633   -1.6021   17.9770 C   0  0  0  0  0  0  0  0  0  0  0  0
   16.1208   -0.4122   17.9411 C   0  0  0  0  0  0  0  0  0  0  0  0
   16.0232    0.2750   16.6438 C   0  0  0  0  0  0  0  0  0  0  0  0
   15.4576   -0.3056   15.7307 O   0  0  0  0  0  0  0  0  0  0  0  0
   16.7085    1.4885   16.5206 N   0  0  0  0  0  0  0  0  0  0  0  0
   18.1342    1.3169   16.2820 C   0  0  0  0  0  0  0  0  0  0  0  0
   18.8631    2.5803   15.8475 C   0  0  0  0  0  0  0  0  0  0  0  0
   20.0205    2.5571   15.4420 O   0  0  0  0  0  0  0  0  0  0  0  0
   18.1705    3.7572   15.9437 N   0  0  0  0  0  0  0  0  0  0  0  0
   16.8099    3.8418   15.8029 C   0  0  0  0  0  0  0  0  0  0  0  0
   16.2575    4.9151   15.5662 O   0  0  0  0  0  0  0  0  0  0  0  0
   16.0697    2.5191   15.6993 C   0  0  1  0  0  0  0  0  0  0  0  0
   15.9632    2.2354   14.2108 C   0  0  0  0  0  0  0  0  0  0  0  0
  1  2  1  0
  2  3  2  0
  3  4  1  0
  3  5  1  0
  5  6  2  0
  6  7  1  0
  7  8  2  0
  8  9  1  0
  9 10  2  0
  9 11  1  0
 11 12  1  0
 12 13  1  0
 13 14  2  0
 13 15  1  0
 15 16  1  0
 16 17  2  0
 16 18  1  0
 18 19  1  6
  8  2  1  0
 18 11  1  0
M  END
>  <original ID>  (347) 
NPCKJCTUNGMQCB-MRVPVSSYSA-N

>  <generation_date>  (347) 
None

>  <alias>  (347) 
None

>  <original SMILES>  (347) 
Cc1c(F)cccc1C(=O)N1CC(=O)NC(=O)[C@H]1C

>  <HIPPO ID>  (347) 
81352

>  <tags>  (347) 
[]

>  <ref_pdb>  (347) 
c0300a

>  <method>  (347) 
None

>  <ref_url>  (347) 
None

>  <inchikey>  (347) 
NPCKJCTUNGMQCB-MRVPVSSYSA-N

>  <submitter_email>  (347) 
None

>  <ref_mols>  (347) 
c0398a,c0585a

>  <submitter_name>  (347) 
None

$$$$
NPCKJCTUNGMQCB-MRVPVSSYSA-N
     RDKit          3D

 19 20  0  0  0  0  0  0  0  0999 V2000
   14.5359    1.2589   19.0257 C   0  0  0  0  0  0  0  0  0  0  0  0
   15.4084    0.0434   19.0666 C   0  0  0  0  0  0  0  0  0  0  0  0
   15.5045   -0.7123   20.2341 C   0  0  0  0  0  0  0  0  0  0  0  0
   14.8497   -0.3196   21.3365 F   0  0  0  0  0  0  0  0  0  0  0  0
   16.2582   -1.8842   20.2926 C   0  0  0  0  0  0  0  0  0  0  0  0
   16.9310   -2.3379   19.1621 C   0  0  0  0  0  0  0  0  0  0  0  0
   16.8557   -1.6034   17.9832 C   0  0  0  0  0  0  0  0  0  0  0  0
   16.1154   -0.4120   17.9459 C   0  0  0  0  0  0  0  0  0  0  0  0
   16.0158    0.2712   16.6465 C   0  0  0  0  0  0  0  0  0  0  0  0
   15.4528   -0.3152   15.7352 O   0  0  0  0  0  0  0  0  0  0  0  0
   16.7046    1.4824   16.5169 N   0  0  0  0  0  0  0  0  0  0  0  0
   18.1291    1.3015   16.2797 C   0  0  0  0  0  0  0  0  0  0  0  0
   18.8586    2.5437   15.7900 C   0  0  0  0  0  0  0  0  0  0  0  0
   20.0001    2.4917   15.3446 O   0  0  0  0  0  0  0  0  0  0  0  0
   18.1864    3.7317   15.8922 N   0  0  0  0  0  0  0  0  0  0  0  0
   16.8254    3.8282   15.7623 C   0  0  0  0  0  0  0  0  0  0  0  0
   16.2803    4.9002   15.5040 O   0  0  0  0  0  0  0  0  0  0  0  0
   16.0701    2.5120   15.6902 C   0  0  1  0  0  0  0  0  0  0  0  0
   15.9451    2.2142   14.2061 C   0  0  0  0  0  0  0  0  0  0  0  0
  1  2  1  0
  2  3  2  0
  3  4  1  0
  3  5  1  0
  5  6  2  0
  6  7  1  0
  7  8  2  0
  8  9  1  0
  9 10  2  0
  9 11  1  0
 11 12  1  0
 12 13  1  0
 13 14  2  0
 13 15  1  0
 15 16  1  0
 16 17  2  0
 16 18  1  0
 18 19  1  6
  8  2  1  0
 18 11  1  0
M  END
>  <original ID>  (348) 
NPCKJCTUNGMQCB-MRVPVSSYSA-N

>  <generation_date>  (348) 
None

>  <alias>  (348) 
None

>  <original SMILES>  (348) 
Cc1c(F)cccc1C(=O)N1CC(=O)NC(=O)[C@H]1C

>  <HIPPO ID>  (348) 
81353

>  <tags>  (348) 
[]

>  <ref_pdb>  (348) 
c0300a

>  <method>  (348) 
None

>  <ref_url>  (348) 
None

>  <inchikey>  (348) 
NPCKJCTUNGMQCB-MRVPVSSYSA-N

>  <submitter_email>  (348) 
None

>  <ref_mols>  (348) 
c0398a,c0585a

>  <submitter_name>  (348) 
None

$$$$
YCQMJAAJPFPKQZ-MRVPVSSYSA-N
     RDKit          3D

 19 20  0  0  0  0  0  0  0  0999 V2000
   16.6447   -2.4756   21.5683 C   0  0  0  0  0  0  0  0  0  0  0  0
   16.4076   -1.8062   20.2508 C   0  0  0  0  0  0  0  0  0  0  0  0
   17.1055   -2.2407   19.1166 C   0  0  0  0  0  0  0  0  0  0  0  0
   16.9675   -1.5590   17.9123 C   0  0  0  0  0  0  0  0  0  0  0  0
   16.1512   -0.4265   17.8554 C   0  0  0  0  0  0  0  0  0  0  0  0
   16.0170    0.2777   16.5790 C   0  0  0  0  0  0  0  0  0  0  0  0
   15.4289   -0.2942   15.6765 O   0  0  0  0  0  0  0  0  0  0  0  0
   16.6924    1.4973   16.4691 N   0  0  0  0  0  0  0  0  0  0  0  0
   18.1239    1.3435   16.2527 C   0  0  0  0  0  0  0  0  0  0  0  0
   18.8501    2.6114   15.8309 C   0  0  0  0  0  0  0  0  0  0  0  0
   20.0162    2.5950   15.4509 O   0  0  0  0  0  0  0  0  0  0  0  0
   18.1479    3.7829   15.9144 N   0  0  0  0  0  0  0  0  0  0  0  0
   16.7868    3.8601   15.7752 C   0  0  0  0  0  0  0  0  0  0  0  0
   16.2284    4.9333   15.5540 O   0  0  0  0  0  0  0  0  0  0  0  0
   16.0539    2.5342   15.6568 C   0  0  1  0  0  0  0  0  0  0  0  0
   15.9551    2.2617   14.1665 C   0  0  0  0  0  0  0  0  0  0  0  0
   15.4195    0.0008   18.9586 C   0  0  0  0  0  0  0  0  0  0  0  0
   15.5560   -0.6984   20.1484 C   0  0  0  0  0  0  0  0  0  0  0  0
   14.8630   -0.2870   21.2206 F   0  0  0  0  0  0  0  0  0  0  0  0
  1  2  1  0
  2  3  2  0
  3  4  1  0
  4  5  2  0
  5  6  1  0
  6  7  2  0
  6  8  1  0
  8  9  1  0
  9 10  1  0
 10 11  2  0
 10 12  1  0
 12 13  1  0
 13 14  2  0
 13 15  1  0
 15 16  1  6
  5 17  1  0
 17 18  2  0
 18 19  1  0
 18  2  1  0
 15  8  1  0
M  END
>  <original ID>  (349) 
YCQMJAAJPFPKQZ-MRVPVSSYSA-N

>  <generation_date>  (349) 
None

>  <alias>  (349) 
None

>  <original SMILES>  (349) 
Cc1ccc(C(=O)N2CC(=O)NC(=O)[C@H]2C)cc1F

>  <HIPPO ID>  (349) 
81422

>  <tags>  (349) 
[]

>  <ref_pdb>  (349) 
c0300a

>  <method>  (349) 
None

>  <ref_url>  (349) 
None

>  <inchikey>  (349) 
YCQMJAAJPFPKQZ-MRVPVSSYSA-N

>  <submitter_email>  (349) 
None

>  <ref_mols>  (349) 
c0398a,c0585a

>  <submitter_name>  (349) 
None

$$$$
YCQMJAAJPFPKQZ-MRVPVSSYSA-N
     RDKit          3D

 19 20  0  0  0  0  0  0  0  0999 V2000
   16.6384   -2.4840   21.5674 C   0  0  0  0  0  0  0  0  0  0  0  0
   16.4017   -1.8131   20.2507 C   0  0  0  0  0  0  0  0  0  0  0  0
   17.0971   -2.2494   19.1157 C   0  0  0  0  0  0  0  0  0  0  0  0
   16.9580   -1.5680   17.9117 C   0  0  0  0  0  0  0  0  0  0  0  0
   16.1433   -0.4342   17.8557 C   0  0  0  0  0  0  0  0  0  0  0  0
   16.0072    0.2677   16.5785 C   0  0  0  0  0  0  0  0  0  0  0  0
   15.4201   -0.3078   15.6775 O   0  0  0  0  0  0  0  0  0  0  0  0
   16.6855    1.4853   16.4647 N   0  0  0  0  0  0  0  0  0  0  0  0
   18.1159    1.3242   16.2464 C   0  0  0  0  0  0  0  0  0  0  0  0
   18.8420    2.5812   15.7951 C   0  0  0  0  0  0  0  0  0  0  0  0
   19.9976    2.5512   15.3860 O   0  0  0  0  0  0  0  0  0  0  0  0
   18.1528    3.7591   15.8940 N   0  0  0  0  0  0  0  0  0  0  0  0
   16.7927    3.8439   15.7511 C   0  0  0  0  0  0  0  0  0  0  0  0
   16.2431    4.9171   15.5092 O   0  0  0  0  0  0  0  0  0  0  0  0
   16.0497    2.5227   15.6503 C   0  0  1  0  0  0  0  0  0  0  0  0
   15.9391    2.2440   14.1624 C   0  0  0  0  0  0  0  0  0  0  0  0
   15.4152   -0.0042   18.9600 C   0  0  0  0  0  0  0  0  0  0  0  0
   15.5528   -0.7031   20.1498 C   0  0  0  0  0  0  0  0  0  0  0  0
   14.8631   -0.2894   21.2233 F   0  0  0  0  0  0  0  0  0  0  0  0
  1  2  1  0
  2  3  2  0
  3  4  1  0
  4  5  2  0
  5  6  1  0
  6  7  2  0
  6  8  1  0
  8  9  1  0
  9 10  1  0
 10 11  2  0
 10 12  1  0
 12 13  1  0
 13 14  2  0
 13 15  1  0
 15 16  1  6
  5 17  1  0
 17 18  2  0
 18 19  1  0
 18  2  1  0
 15  8  1  0
M  END
>  <original ID>  (350) 
YCQMJAAJPFPKQZ-MRVPVSSYSA-N

>  <generation_date>  (350) 
None

>  <alias>  (350) 
None

>  <original SMILES>  (350) 
Cc1ccc(C(=O)N2CC(=O)NC(=O)[C@H]2C)cc1F

>  <HIPPO ID>  (350) 
81423

>  <tags>  (350) 
[]

>  <ref_pdb>  (350) 
c0300a

>  <method>  (350) 
None

>  <ref_url>  (350) 
None

>  <inchikey>  (350) 
YCQMJAAJPFPKQZ-MRVPVSSYSA-N

>  <submitter_email>  (350) 
None

>  <ref_mols>  (350) 
c0398a,c0585a

>  <submitter_name>  (350) 
None

$$$$
NURUWAIXRJYOJA-CQSZACIVSA-N
     RDKit          3D

 19 20  0  0  0  0  0  0  0  0999 V2000
   16.7156   -2.5037   21.2550 C   0  0  0  0  0  0  0  0  0  0  0  0
   16.5263   -1.3196   20.3630 C   0  0  0  0  0  0  0  0  0  0  0  0
   17.5283   -0.3744   20.1776 C   0  0  0  0  0  0  0  0  0  0  0  0
   17.3084    0.7296   19.3432 C   0  0  0  0  0  0  0  0  0  0  0  0
   16.1264    0.8381   18.6080 C   0  0  0  0  0  0  0  0  0  0  0  0
   15.7834    1.9082   17.6623 C   0  0  0  0  0  0  0  0  0  0  0  0
   14.6812    2.4161   17.8502 O   0  0  0  0  0  0  0  0  0  0  0  0
   16.5912    2.3185   16.6126 N   0  0  0  0  0  0  0  0  0  0  0  0
   15.9805    3.2608   15.6692 C   0  0  0  0  0  0  0  0  0  0  0  0
   16.6825    3.2866   14.3058 C   0  0  0  0  0  0  0  0  0  0  0  0
   18.1336    3.5519   14.3534 N   0  0  0  0  0  0  0  0  0  0  0  0
   18.6481    3.3729   15.7218 C   0  0  0  0  0  0  0  0  0  0  0  0
   18.0440    2.1657   16.5166 C   0  0  2  0  0  0  0  0  0  0  0  0
   18.4814    0.8256   15.8954 C   0  0  0  0  0  0  0  0  0  0  0  0
   17.8158   -0.4506   16.3950 C   0  0  0  0  0  0  0  0  0  0  0  0
   19.9901    0.6629   16.0760 C   0  0  0  0  0  0  0  0  0  0  0  0
   15.1123   -0.0836   18.8217 C   0  0  0  0  0  0  0  0  0  0  0  0
   15.3151   -1.1138   19.7129 C   0  0  0  0  0  0  0  0  0  0  0  0
   14.2814   -1.8947   19.9862 F   0  0  0  0  0  0  0  0  0  0  0  0
  1  2  1  0
  2  3  2  0
  3  4  1  0
  4  5  2  0
  5  6  1  0
  6  7  2  0
  6  8  1  0
  8  9  1  0
  9 10  1  0
 10 11  1  0
 11 12  1  0
 12 13  1  0
 13 14  1  6
 14 15  1  0
 14 16  1  0
  5 17  1  0
 17 18  2  0
 18 19  1  0
 18  2  1  0
 13  8  1  0
M  END
>  <original ID>  (351) 
NURUWAIXRJYOJA-CQSZACIVSA-N

>  <generation_date>  (351) 
None

>  <alias>  (351) 
None

>  <original SMILES>  (351) 
Cc1ccc(C(=O)N2CCNC[C@@H]2C(C)C)cc1F

>  <HIPPO ID>  (351) 
81521

>  <tags>  (351) 
[]

>  <ref_pdb>  (351) 
c0300a

>  <method>  (351) 
None

>  <ref_url>  (351) 
None

>  <inchikey>  (351) 
NURUWAIXRJYOJA-CQSZACIVSA-N

>  <submitter_email>  (351) 
None

>  <ref_mols>  (351) 
c0398a,c0585a

>  <submitter_name>  (351) 
None

$$$$
NURUWAIXRJYOJA-AWEZNQCLSA-N
     RDKit          3D

 19 20  0  0  0  0  0  0  0  0999 V2000
   16.4978   -2.3069   21.7375 C   0  0  0  0  0  0  0  0  0  0  0  0
   16.1483   -1.7066   20.4120 C   0  0  0  0  0  0  0  0  0  0  0  0
   16.7257   -2.2171   19.2499 C   0  0  0  0  0  0  0  0  0  0  0  0
   16.4940   -1.5799   18.0387 C   0  0  0  0  0  0  0  0  0  0  0  0
   15.7049   -0.4175   17.9815 C   0  0  0  0  0  0  0  0  0  0  0  0
   15.6778    0.2633   16.6762 C   0  0  0  0  0  0  0  0  0  0  0  0
   15.4174   -0.4369   15.7031 O   0  0  0  0  0  0  0  0  0  0  0  0
   16.4057    1.4449   16.6067 N   0  0  0  0  0  0  0  0  0  0  0  0
   15.8989    2.7266   17.0710 C   0  0  0  0  0  0  0  0  0  0  0  0
   15.6904    3.7216   15.9050 C   0  0  0  0  0  0  0  0  0  0  0  0
   16.8630    3.8656   15.0190 N   0  0  0  0  0  0  0  0  0  0  0  0
   17.1950    2.5161   14.5036 C   0  0  0  0  0  0  0  0  0  0  0  0
   17.4960    1.5014   15.6331 C   0  0  1  0  0  0  0  0  0  0  0  0
   18.8275    1.7565   16.3644 C   0  0  0  0  0  0  0  0  0  0  0  0
   18.9529    0.8909   17.6186 C   0  0  0  0  0  0  0  0  0  0  0  0
   20.0159    1.4417   15.4682 C   0  0  0  0  0  0  0  0  0  0  0  0
   15.0818    0.0712   19.1175 C   0  0  0  0  0  0  0  0  0  0  0  0
   15.3122   -0.5834   20.3213 C   0  0  0  0  0  0  0  0  0  0  0  0
   14.7237   -0.1086   21.4286 F   0  0  0  0  0  0  0  0  0  0  0  0
  1  2  1  0
  2  3  2  0
  3  4  1  0
  4  5  2  0
  5  6  1  0
  6  7  2  0
  6  8  1  0
  8  9  1  0
  9 10  1  0
 10 11  1  0
 11 12  1  0
 12 13  1  0
 13 14  1  1
 14 15  1  0
 14 16  1  0
  5 17  1  0
 17 18  2  0
 18 19  1  0
 18  2  1  0
 13  8  1  0
M  END
>  <original ID>  (352) 
NURUWAIXRJYOJA-AWEZNQCLSA-N

>  <generation_date>  (352) 
None

>  <alias>  (352) 
None

>  <original SMILES>  (352) 
Cc1ccc(C(=O)N2CCNC[C@H]2C(C)C)cc1F

>  <HIPPO ID>  (352) 
81522

>  <tags>  (352) 
[]

>  <ref_pdb>  (352) 
c0300a

>  <method>  (352) 
None

>  <ref_url>  (352) 
None

>  <inchikey>  (352) 
NURUWAIXRJYOJA-AWEZNQCLSA-N

>  <submitter_email>  (352) 
None

>  <ref_mols>  (352) 
c0398a,c0585a

>  <submitter_name>  (352) 
None

$$$$
ORCQRCGWNYLGHR-UHFFFAOYSA-N
     RDKit          3D

 16 17  0  0  0  0  0  0  0  0999 V2000
   21.5477   11.4783   10.4849 C   0  0  0  0  0  0  0  0  0  0  0  0
   20.1254   11.3755   10.4466 O   0  0  0  0  0  0  0  0  0  0  0  0
   19.5167   12.4501   11.1474 C   0  0  0  0  0  0  0  0  0  0  0  0
   18.0540   12.1594   11.4871 C   0  0  0  0  0  0  0  0  0  0  0  0
   17.5073   12.7816   12.3962 O   0  0  0  0  0  0  0  0  0  0  0  0
   17.4685   11.1956   10.6954 N   0  0  0  0  0  0  0  0  0  0  0  0
   16.3307   10.3962   10.9593 C   0  0  0  0  0  0  0  0  0  0  0  0
   16.0396    9.4274    9.9935 C   0  0  0  0  0  0  0  0  0  0  0  0
   15.1499    8.4352   10.3222 C   0  0  0  0  0  0  0  0  0  0  0  0
   14.6318    8.3132   11.5777 C   0  0  0  0  0  0  0  0  0  0  0  0
   14.8182    9.2994   12.5150 C   0  0  0  0  0  0  0  0  0  0  0  0
   15.5911   10.4141   12.1686 C   0  0  0  0  0  0  0  0  0  0  0  0
   15.3126   11.6055   12.8516 N   0  0  0  0  0  0  0  0  0  0  0  0
   13.8358    7.2165   11.7123 O   0  0  0  0  0  0  0  0  0  0  0  0
   13.8550    6.7047   10.3650 C   0  0  0  0  0  0  0  0  0  0  0  0
   14.6851    7.4791    9.4949 O   0  0  0  0  0  0  0  0  0  0  0  0
  1  2  1  0
  2  3  1  0
  3  4  1  0
  4  5  2  0
  4  6  1  0
  6  7  1  0
  7  8  2  0
  8  9  1  0
  9 10  2  0
 10 11  1  0
 11 12  2  0
 12 13  1  0
 10 14  1  0
 14 15  1  0
 15 16  1  0
 12  7  1  0
 16  9  1  0
M  END
>  <original ID>  (353) 
ORCQRCGWNYLGHR-UHFFFAOYSA-N

>  <generation_date>  (353) 
None

>  <alias>  (353) 
None

>  <original SMILES>  (353) 
COCC(=O)Nc1cc2c(cc1N)OCO2

>  <HIPPO ID>  (353) 
84846

>  <tags>  (353) 
[]

>  <ref_pdb>  (353) 
c0270a

>  <method>  (353) 
None

>  <ref_url>  (353) 
None

>  <inchikey>  (353) 
ORCQRCGWNYLGHR-UHFFFAOYSA-N

>  <submitter_email>  (353) 
None

>  <ref_mols>  (353) 
c0935a,c1116a

>  <submitter_name>  (353) 
None

$$$$
YDJRYIIKTSKBBA-UHFFFAOYSA-N
     RDKit          3D

 16 17  0  0  0  0  0  0  0  0999 V2000
   21.4953   11.4778   10.5435 C   0  0  0  0  0  0  0  0  0  0  0  0
   20.0799   11.3437   10.4479 O   0  0  0  0  0  0  0  0  0  0  0  0
   19.4121   12.3964   11.1282 C   0  0  0  0  0  0  0  0  0  0  0  0
   17.9229   12.1077   11.3428 C   0  0  0  0  0  0  0  0  0  0  0  0
   17.2490   12.8403   12.0685 O   0  0  0  0  0  0  0  0  0  0  0  0
   17.4407   11.0319   10.6308 N   0  0  0  0  0  0  0  0  0  0  0  0
   16.3051   10.2253   10.8804 C   0  0  0  0  0  0  0  0  0  0  0  0
   15.9348    9.3501    9.8373 C   0  0  0  0  0  0  0  0  0  0  0  0
   15.0234    8.3168   10.0472 C   0  0  0  0  0  0  0  0  0  0  0  0
   14.6108    8.0951   11.3344 C   0  0  0  0  0  0  0  0  0  0  0  0
   14.9329    8.9687   12.3569 C   0  0  0  0  0  0  0  0  0  0  0  0
   15.6386   10.1412   12.1175 C   0  0  0  0  0  0  0  0  0  0  0  0
   15.8434   11.0256   13.1794 N   0  0  0  0  0  0  0  0  0  0  0  0
   14.4238    8.4304   13.6398 C   0  0  0  0  0  0  0  0  0  0  0  0
   13.8698    7.0827   13.1657 C   0  0  0  0  0  0  0  0  0  0  0  0
   13.8420    7.0325   11.7224 O   0  0  0  0  0  0  0  0  0  0  0  0
  1  2  1  0
  2  3  1  0
  3  4  1  0
  4  5  2  0
  4  6  1  0
  6  7  1  0
  7  8  2  0
  8  9  1  0
  9 10  2  0
 10 11  1  0
 11 12  2  0
 12 13  1  0
 11 14  1  0
 14 15  1  0
 15 16  1  0
 12  7  1  0
 16 10  1  0
M  END
>  <original ID>  (354) 
YDJRYIIKTSKBBA-UHFFFAOYSA-N

>  <generation_date>  (354) 
None

>  <alias>  (354) 
None

>  <original SMILES>  (354) 
COCC(=O)Nc1ccc2c(c1N)CCO2

>  <HIPPO ID>  (354) 
84851

>  <tags>  (354) 
[]

>  <ref_pdb>  (354) 
c0270a

>  <method>  (354) 
None

>  <ref_url>  (354) 
None

>  <inchikey>  (354) 
YDJRYIIKTSKBBA-UHFFFAOYSA-N

>  <submitter_email>  (354) 
None

>  <ref_mols>  (354) 
c0935a,c1116a

>  <submitter_name>  (354) 
None

$$$$
BLCTWNNCFDJXOL-UHFFFAOYSA-N
     RDKit          3D

 16 16  0  0  0  0  0  0  0  0999 V2000
   22.3549   12.2331    9.9036 C   0  0  0  0  0  0  0  0  0  0  0  0
   21.5724   11.4628   10.9475 C   0  0  0  0  0  0  0  0  0  0  0  0
   20.1678   11.3257   10.6642 O   0  0  0  0  0  0  0  0  0  0  0  0
   19.4276   12.4023   10.9994 C   0  0  0  0  0  0  0  0  0  0  0  0
   19.8126   13.5510   11.1233 O   0  0  0  0  0  0  0  0  0  0  0  0
   17.9896   11.9862   11.3524 C   0  0  0  0  0  0  0  0  0  0  0  0
   17.4720   12.5365   12.3177 O   0  0  0  0  0  0  0  0  0  0  0  0
   17.4173   11.0287   10.5410 N   0  0  0  0  0  0  0  0  0  0  0  0
   16.2955   10.2046   10.8025 C   0  0  0  0  0  0  0  0  0  0  0  0
   15.9667    9.2969    9.7861 C   0  0  0  0  0  0  0  0  0  0  0  0
   15.0558    8.2676   10.0078 C   0  0  0  0  0  0  0  0  0  0  0  0
   14.5366    8.0831   11.2685 C   0  0  0  0  0  0  0  0  0  0  0  0
   13.7057    7.0229   11.4731 O   0  0  0  0  0  0  0  0  0  0  0  0
   14.7908    9.0127   12.2660 C   0  0  0  0  0  0  0  0  0  0  0  0
   15.5959   10.1294   12.0183 C   0  0  0  0  0  0  0  0  0  0  0  0
   15.4016   11.2140   12.8936 N   0  0  0  0  0  0  0  0  0  0  0  0
  1  2  1  0
  2  3  1  0
  3  4  1  0
  4  5  2  0
  4  6  1  0
  6  7  2  0
  6  8  1  0
  8  9  1  0
  9 10  2  0
 10 11  1  0
 11 12  2  0
 12 13  1  0
 12 14  1  0
 14 15  2  0
 15 16  1  0
 15  9  1  0
M  END
>  <original ID>  (355) 
BLCTWNNCFDJXOL-UHFFFAOYSA-N

>  <generation_date>  (355) 
None

>  <alias>  (355) 
None

>  <original SMILES>  (355) 
CCOC(=O)C(=O)Nc1ccc(O)cc1N

>  <HIPPO ID>  (355) 
84860

>  <tags>  (355) 
[]

>  <ref_pdb>  (355) 
c0270a

>  <method>  (355) 
None

>  <ref_url>  (355) 
None

>  <inchikey>  (355) 
BLCTWNNCFDJXOL-UHFFFAOYSA-N

>  <submitter_email>  (355) 
None

>  <ref_mols>  (355) 
c0935a,c1116a

>  <submitter_name>  (355) 
None

$$$$
DENVXOMDJBFIAB-UHFFFAOYSA-N
     RDKit          3D

 16 16  0  0  0  0  0  0  0  0999 V2000
   21.5415   11.4425   10.4062 C   0  0  0  0  0  0  0  0  0  0  0  0
   20.1195   11.3377   10.4286 O   0  0  0  0  0  0  0  0  0  0  0  0
   19.5145   12.4262   11.1367 C   0  0  0  0  0  0  0  0  0  0  0  0
   20.1947   12.6487   12.3569 O   0  0  0  0  0  0  0  0  0  0  0  0
   20.0329   13.9558   12.8748 C   0  0  0  0  0  0  0  0  0  0  0  0
   17.9881   12.1251   11.3350 C   0  0  0  0  0  0  0  0  0  0  0  0
   17.2693   12.8523   12.0238 O   0  0  0  0  0  0  0  0  0  0  0  0
   17.5377   11.0312   10.6247 N   0  0  0  0  0  0  0  0  0  0  0  0
   16.3746   10.2537   10.8041 C   0  0  0  0  0  0  0  0  0  0  0  0
   16.0519    9.4014    9.7411 C   0  0  0  0  0  0  0  0  0  0  0  0
   15.0881    8.4122    9.8786 C   0  0  0  0  0  0  0  0  0  0  0  0
   14.5426    8.1826   11.1196 C   0  0  0  0  0  0  0  0  0  0  0  0
   13.6945    7.1353   11.3240 O   0  0  0  0  0  0  0  0  0  0  0  0
   14.8133    9.0509   12.1688 C   0  0  0  0  0  0  0  0  0  0  0  0
   15.6087   10.1871   11.9774 C   0  0  0  0  0  0  0  0  0  0  0  0
   15.7649   11.0532   13.0644 N   0  0  0  0  0  0  0  0  0  0  0  0
  1  2  1  0
  2  3  1  0
  3  4  1  0
  4  5  1  0
  3  6  1  0
  6  7  2  0
  6  8  1  0
  8  9  1  0
  9 10  2  0
 10 11  1  0
 11 12  2  0
 12 13  1  0
 12 14  1  0
 14 15  2  0
 15 16  1  0
 15  9  1  0
M  END
>  <original ID>  (356) 
DENVXOMDJBFIAB-UHFFFAOYSA-N

>  <generation_date>  (356) 
None

>  <alias>  (356) 
None

>  <original SMILES>  (356) 
COC(OC)C(=O)Nc1ccc(O)cc1N

>  <HIPPO ID>  (356) 
84862

>  <tags>  (356) 
[]

>  <ref_pdb>  (356) 
c0270a

>  <method>  (356) 
None

>  <ref_url>  (356) 
None

>  <inchikey>  (356) 
DENVXOMDJBFIAB-UHFFFAOYSA-N

>  <submitter_email>  (356) 
None

>  <ref_mols>  (356) 
c0935a,c1116a

>  <submitter_name>  (356) 
None

$$$$
ZYNQZXWOWZIJSJ-UHFFFAOYSA-N
     RDKit          3D

 18 19  0  0  0  0  0  0  0  0999 V2000
   21.5752   11.3290   10.5497 C   0  0  0  0  0  0  0  0  0  0  0  0
   20.1549   11.3423   10.4843 O   0  0  0  0  0  0  0  0  0  0  0  0
   19.5985   12.4621   11.1676 C   0  0  0  0  0  0  0  0  0  0  0  0
   19.8303   13.6613   10.4382 O   0  0  0  0  0  0  0  0  0  0  0  0
   20.6570   14.5677   11.1501 C   0  0  0  0  0  0  0  0  0  0  0  0
   18.0670   12.2462   11.3764 C   0  0  0  0  0  0  0  0  0  0  0  0
   17.4008   13.0233   12.0640 O   0  0  0  0  0  0  0  0  0  0  0  0
   17.5551   11.1576   10.6998 N   0  0  0  0  0  0  0  0  0  0  0  0
   16.3954   10.3963   10.9593 C   0  0  0  0  0  0  0  0  0  0  0  0
   16.0348    9.4943    9.9521 C   0  0  0  0  0  0  0  0  0  0  0  0
   15.1118    8.5246   10.2502 C   0  0  0  0  0  0  0  0  0  0  0  0
   14.6287    8.3550   11.5129 C   0  0  0  0  0  0  0  0  0  0  0  0
   14.8886    9.2770   12.4962 C   0  0  0  0  0  0  0  0  0  0  0  0
   15.6767   10.3927   12.1814 C   0  0  0  0  0  0  0  0  0  0  0  0
   15.8758   11.3313   13.2003 N   0  0  0  0  0  0  0  0  0  0  0  0
   13.8377    7.2533   11.6272 O   0  0  0  0  0  0  0  0  0  0  0  0
   13.8436    6.7780   10.2656 C   0  0  0  0  0  0  0  0  0  0  0  0
   14.6017    7.6211    9.3926 O   0  0  0  0  0  0  0  0  0  0  0  0
  1  2  1  0
  2  3  1  0
  3  4  1  0
  4  5  1  0
  3  6  1  0
  6  7  2  0
  6  8  1  0
  8  9  1  0
  9 10  2  0
 10 11  1  0
 11 12  2  0
 12 13  1  0
 13 14  2  0
 14 15  1  0
 12 16  1  0
 16 17  1  0
 17 18  1  0
 14  9  1  0
 18 11  1  0
M  END
>  <original ID>  (357) 
ZYNQZXWOWZIJSJ-UHFFFAOYSA-N

>  <generation_date>  (357) 
None

>  <alias>  (357) 
None

>  <original SMILES>  (357) 
COC(OC)C(=O)Nc1cc2c(cc1N)OCO2

>  <HIPPO ID>  (357) 
85040

>  <tags>  (357) 
[]

>  <ref_pdb>  (357) 
c0270a

>  <method>  (357) 
None

>  <ref_url>  (357) 
None

>  <inchikey>  (357) 
ZYNQZXWOWZIJSJ-UHFFFAOYSA-N

>  <submitter_email>  (357) 
None

>  <ref_mols>  (357) 
c0935a,c1116a

>  <submitter_name>  (357) 
None

$$$$
FCNLMPDMCJOPIE-UHFFFAOYSA-N
     RDKit          3D

 18 19  0  0  0  0  0  0  0  0999 V2000
   21.4891   11.4361   10.5012 C   0  0  0  0  0  0  0  0  0  0  0  0
   20.0695   11.4293   10.3858 O   0  0  0  0  0  0  0  0  0  0  0  0
   19.4730   12.4345   11.2009 C   0  0  0  0  0  0  0  0  0  0  0  0
   19.7099   13.7241   10.6477 O   0  0  0  0  0  0  0  0  0  0  0  0
   19.8638   14.7109   11.6635 C   0  0  0  0  0  0  0  0  0  0  0  0
   17.9448   12.1451   11.3842 C   0  0  0  0  0  0  0  0  0  0  0  0
   17.2483   12.8634   12.1066 O   0  0  0  0  0  0  0  0  0  0  0  0
   17.4687   11.0691   10.6594 N   0  0  0  0  0  0  0  0  0  0  0  0
   16.3321   10.2578   10.8943 C   0  0  0  0  0  0  0  0  0  0  0  0
   15.9684    9.3885    9.8440 C   0  0  0  0  0  0  0  0  0  0  0  0
   15.0548    8.3538   10.0409 C   0  0  0  0  0  0  0  0  0  0  0  0
   14.6335    8.1225   11.3235 C   0  0  0  0  0  0  0  0  0  0  0  0
   14.9496    8.9886   12.3538 C   0  0  0  0  0  0  0  0  0  0  0  0
   15.6563   10.1633   12.1261 C   0  0  0  0  0  0  0  0  0  0  0  0
   15.8518   11.0417   13.1958 N   0  0  0  0  0  0  0  0  0  0  0  0
   14.4329    8.4414   13.6299 C   0  0  0  0  0  0  0  0  0  0  0  0
   13.8855    7.0953   13.1436 C   0  0  0  0  0  0  0  0  0  0  0  0
   13.8642    7.0561   11.6997 O   0  0  0  0  0  0  0  0  0  0  0  0
  1  2  1  0
  2  3  1  0
  3  4  1  0
  4  5  1  0
  3  6  1  0
  6  7  2  0
  6  8  1  0
  8  9  1  0
  9 10  2  0
 10 11  1  0
 11 12  2  0
 12 13  1  0
 13 14  2  0
 14 15  1  0
 13 16  1  0
 16 17  1  0
 17 18  1  0
 14  9  1  0
 18 12  1  0
M  END
>  <original ID>  (358) 
FCNLMPDMCJOPIE-UHFFFAOYSA-N

>  <generation_date>  (358) 
None

>  <alias>  (358) 
None

>  <original SMILES>  (358) 
COC(OC)C(=O)Nc1ccc2c(c1N)CCO2

>  <HIPPO ID>  (358) 
85049

>  <tags>  (358) 
[]

>  <ref_pdb>  (358) 
c0270a

>  <method>  (358) 
None

>  <ref_url>  (358) 
None

>  <inchikey>  (358) 
FCNLMPDMCJOPIE-UHFFFAOYSA-N

>  <submitter_email>  (358) 
None

>  <ref_mols>  (358) 
c0935a,c1116a

>  <submitter_name>  (358) 
None

$$$$
KTFZAOZUNVFCFK-UHFFFAOYSA-N
     RDKit          3D

 18 19  0  0  0  0  0  0  0  0999 V2000
   22.2524   11.5171   11.7680 C   0  0  0  0  0  0  0  0  0  0  0  0
   21.4922   11.5427   10.4596 C   0  0  0  0  0  0  0  0  0  0  0  0
   20.0930   11.2908   10.6849 O   0  0  0  0  0  0  0  0  0  0  0  0
   19.3573   12.3837   10.9750 C   0  0  0  0  0  0  0  0  0  0  0  0
   19.7350   13.5412   10.9981 O   0  0  0  0  0  0  0  0  0  0  0  0
   17.9078   11.9924   11.3148 C   0  0  0  0  0  0  0  0  0  0  0  0
   17.3231   12.6532   12.1666 O   0  0  0  0  0  0  0  0  0  0  0  0
   17.3836   10.9561   10.5671 N   0  0  0  0  0  0  0  0  0  0  0  0
   16.2586   10.1412   10.8442 C   0  0  0  0  0  0  0  0  0  0  0  0
   15.8551    9.2927    9.7918 C   0  0  0  0  0  0  0  0  0  0  0  0
   14.9415    8.2619   10.0021 C   0  0  0  0  0  0  0  0  0  0  0  0
   14.5511    8.0171   11.2916 C   0  0  0  0  0  0  0  0  0  0  0  0
   14.9024    8.8654   12.3237 C   0  0  0  0  0  0  0  0  0  0  0  0
   15.6202   10.0334   12.0951 C   0  0  0  0  0  0  0  0  0  0  0  0
   15.8521   10.8851   13.1750 N   0  0  0  0  0  0  0  0  0  0  0  0
   14.4044    8.3118   13.6047 C   0  0  0  0  0  0  0  0  0  0  0  0
   13.7644    7.0107   13.1113 C   0  0  0  0  0  0  0  0  0  0  0  0
   13.7719    6.9593   11.6683 O   0  0  0  0  0  0  0  0  0  0  0  0
  1  2  1  0
  2  3  1  0
  3  4  1  0
  4  5  2  0
  4  6  1  0
  6  7  2  0
  6  8  1  0
  8  9  1  0
  9 10  2  0
 10 11  1  0
 11 12  2  0
 12 13  1  0
 13 14  2  0
 14 15  1  0
 13 16  1  0
 16 17  1  0
 17 18  1  0
 14  9  1  0
 18 12  1  0
M  END
>  <original ID>  (359) 
KTFZAOZUNVFCFK-UHFFFAOYSA-N

>  <generation_date>  (359) 
None

>  <alias>  (359) 
None

>  <original SMILES>  (359) 
CCOC(=O)C(=O)Nc1ccc2c(c1N)CCO2

>  <HIPPO ID>  (359) 
85051

>  <tags>  (359) 
[]

>  <ref_pdb>  (359) 
c0270a

>  <method>  (359) 
None

>  <ref_url>  (359) 
None

>  <inchikey>  (359) 
KTFZAOZUNVFCFK-UHFFFAOYSA-N

>  <submitter_email>  (359) 
None

>  <ref_mols>  (359) 
c0935a,c1116a

>  <submitter_name>  (359) 
None

$$$$
ITEGQVNJDNQLFV-UHFFFAOYSA-N
     RDKit          3D

 18 19  0  0  0  0  0  0  0  0999 V2000
   22.3761   11.6800    9.9279 C   0  0  0  0  0  0  0  0  0  0  0  0
   21.5661   11.3728   11.1582 C   0  0  0  0  0  0  0  0  0  0  0  0
   20.1608   11.2673   10.8795 O   0  0  0  0  0  0  0  0  0  0  0  0
   19.4740   12.4198   11.0207 C   0  0  0  0  0  0  0  0  0  0  0  0
   19.9252   13.5498   11.0379 O   0  0  0  0  0  0  0  0  0  0  0  0
   17.9851   12.1252   11.2752 C   0  0  0  0  0  0  0  0  0  0  0  0
   17.3641   12.8827   12.0130 O   0  0  0  0  0  0  0  0  0  0  0  0
   17.4737   11.0389   10.5985 N   0  0  0  0  0  0  0  0  0  0  0  0
   16.3230   10.2782   10.9055 C   0  0  0  0  0  0  0  0  0  0  0  0
   15.9201    9.3820    9.9093 C   0  0  0  0  0  0  0  0  0  0  0  0
   15.0107    8.4112   10.2445 C   0  0  0  0  0  0  0  0  0  0  0  0
   14.5822    8.2375   11.5269 C   0  0  0  0  0  0  0  0  0  0  0  0
   14.8813    9.1556   12.5010 C   0  0  0  0  0  0  0  0  0  0  0  0
   15.6537   10.2726   12.1572 C   0  0  0  0  0  0  0  0  0  0  0  0
   15.8900   11.2025   13.1745 N   0  0  0  0  0  0  0  0  0  0  0  0
   13.7924    7.1395   11.6732 O   0  0  0  0  0  0  0  0  0  0  0  0
   13.7660    6.6501   10.3178 C   0  0  0  0  0  0  0  0  0  0  0  0
   14.4574    7.5118    9.4086 O   0  0  0  0  0  0  0  0  0  0  0  0
  1  2  1  0
  2  3  1  0
  3  4  1  0
  4  5  2  0
  4  6  1  0
  6  7  2  0
  6  8  1  0
  8  9  1  0
  9 10  2  0
 10 11  1  0
 11 12  2  0
 12 13  1  0
 13 14  2  0
 14 15  1  0
 12 16  1  0
 16 17  1  0
 17 18  1  0
 14  9  1  0
 18 11  1  0
M  END
>  <original ID>  (360) 
ITEGQVNJDNQLFV-UHFFFAOYSA-N

>  <generation_date>  (360) 
None

>  <alias>  (360) 
None

>  <original SMILES>  (360) 
CCOC(=O)C(=O)Nc1cc2c(cc1N)OCO2

>  <HIPPO ID>  (360) 
85083

>  <tags>  (360) 
[]

>  <ref_pdb>  (360) 
c0270a

>  <method>  (360) 
None

>  <ref_url>  (360) 
None

>  <inchikey>  (360) 
ITEGQVNJDNQLFV-UHFFFAOYSA-N

>  <submitter_email>  (360) 
None

>  <ref_mols>  (360) 
c0935a,c1116a

>  <submitter_name>  (360) 
None

$$$$
MHSONZJWPSRFSO-UHFFFAOYSA-N
     RDKit          3D

 19 20  0  0  0  0  0  0  0  0999 V2000
   15.5562    9.4140    8.5019 N   0  0  0  0  0  0  0  0  0  0  0  0
   15.1833    9.0659    9.7967 C   0  0  0  0  0  0  0  0  0  0  0  0
   14.4048    7.9385   10.0066 C   0  0  0  0  0  0  0  0  0  0  0  0
   14.2001    7.4892   11.2986 C   0  0  0  0  0  0  0  0  0  0  0  0
   13.3515    6.4563   11.5503 O   0  0  0  0  0  0  0  0  0  0  0  0
   14.8087    8.1150   12.3781 C   0  0  0  0  0  0  0  0  0  0  0  0
   15.6177    9.2272   12.1632 C   0  0  0  0  0  0  0  0  0  0  0  0
   15.8086    9.6985   10.8690 C   0  0  0  0  0  0  0  0  0  0  0  0
   16.6438   10.7764   10.5013 N   0  0  0  0  0  0  0  0  0  0  0  0
   17.6239   11.2279   11.3134 C   0  0  0  0  0  0  0  0  0  0  0  0
   18.7333   10.7107   11.1932 O   0  0  0  0  0  0  0  0  0  0  0  0
   17.3504   12.5136   12.1453 C   0  0  0  0  0  0  0  0  0  0  0  0
   18.6260   13.2778   12.2524 O   0  0  0  0  0  0  0  0  0  0  0  0
   19.5636   13.3607   11.1524 C   0  0  0  0  0  0  0  0  0  0  0  0
   20.9887   12.8791   11.4470 C   0  0  0  0  0  0  0  0  0  0  0  0
   21.8383   13.2022   10.3441 O   0  0  0  0  0  0  0  0  0  0  0  0
   16.6574   12.3236   13.5580 C   0  0  0  0  0  0  0  0  0  0  0  0
   15.2927   12.5997   12.9621 C   0  0  0  0  0  0  0  0  0  0  0  0
   16.0302   13.3343   11.8567 C   0  0  0  0  0  0  0  0  0  0  0  0
  1  2  1  0
  2  3  2  0
  3  4  1  0
  4  5  1  0
  4  6  2  0
  6  7  1  0
  7  8  2  0
  8  9  1  0
  9 10  1  0
 10 11  2  0
 10 12  1  0
 12 13  1  0
 13 14  1  0
 14 15  1  0
 15 16  1  0
 12 17  1  0
 17 18  1  0
 18 19  1  0
  8  2  1  0
 19 12  1  0
M  END
>  <original ID>  (361) 
MHSONZJWPSRFSO-UHFFFAOYSA-N

>  <generation_date>  (361) 
None

>  <alias>  (361) 
None

>  <original SMILES>  (361) 
Nc1cc(O)ccc1NC(=O)C1(OCCO)CCC1

>  <HIPPO ID>  (361) 
85224

>  <tags>  (361) 
[]

>  <ref_pdb>  (361) 
c0270a

>  <method>  (361) 
None

>  <ref_url>  (361) 
None

>  <inchikey>  (361) 
MHSONZJWPSRFSO-UHFFFAOYSA-N

>  <submitter_email>  (361) 
None

>  <ref_mols>  (361) 
c0935a,c1116a

>  <submitter_name>  (361) 
None

$$$$
LVOVXEHTLLCFGX-UHFFFAOYSA-N
     RDKit          3D

 21 23  0  0  0  0  0  0  0  0999 V2000
   15.4643   10.1766    8.8268 N   0  0  0  0  0  0  0  0  0  0  0  0
   15.3138    9.2134    9.8357 C   0  0  0  0  0  0  0  0  0  0  0  0
   14.3266    8.2327    9.7142 C   0  0  0  0  0  0  0  0  0  0  0  0
   14.0414    7.4678   10.8203 C   0  0  0  0  0  0  0  0  0  0  0  0
   14.6647    7.6811   12.0217 C   0  0  0  0  0  0  0  0  0  0  0  0
   15.6702    8.5980   12.1658 C   0  0  0  0  0  0  0  0  0  0  0  0
   16.0214    9.3581   11.0509 C   0  0  0  0  0  0  0  0  0  0  0  0
   16.9777   10.3943   11.1091 N   0  0  0  0  0  0  0  0  0  0  0  0
   17.1391   11.1441   12.2570 C   0  0  0  0  0  0  0  0  0  0  0  0
   17.0204   10.7575   13.4168 O   0  0  0  0  0  0  0  0  0  0  0  0
   17.2139   12.6358   11.9520 C   0  0  0  0  0  0  0  0  0  0  0  0
   18.3083   12.9637   11.0073 O   0  0  0  0  0  0  0  0  0  0  0  0
   19.6511   12.5277   11.3533 C   0  0  0  0  0  0  0  0  0  0  0  0
   20.7456   13.4530   10.8077 C   0  0  0  0  0  0  0  0  0  0  0  0
   22.0339   12.8938   11.0225 O   0  0  0  0  0  0  0  0  0  0  0  0
   16.9952   13.7030   13.0800 C   0  0  0  0  0  0  0  0  0  0  0  0
   15.4949   13.3701   13.0852 C   0  0  0  0  0  0  0  0  0  0  0  0
   15.6888   12.9761   11.6280 C   0  0  0  0  0  0  0  0  0  0  0  0
   14.1321    6.9441   13.0297 O   0  0  0  0  0  0  0  0  0  0  0  0
   13.1135    6.2205   12.3180 C   0  0  0  0  0  0  0  0  0  0  0  0
   13.0611    6.5293   10.9122 O   0  0  0  0  0  0  0  0  0  0  0  0
  1  2  1  0
  2  3  2  0
  3  4  1  0
  4  5  2  0
  5  6  1  0
  6  7  2  0
  7  8  1  0
  8  9  1  0
  9 10  2  0
  9 11  1  0
 11 12  1  0
 12 13  1  0
 13 14  1  0
 14 15  1  0
 11 16  1  0
 16 17  1  0
 17 18  1  0
  5 19  1  0
 19 20  1  0
 20 21  1  0
  7  2  1  0
 18 11  1  0
 21  4  1  0
M  END
>  <original ID>  (362) 
LVOVXEHTLLCFGX-UHFFFAOYSA-N

>  <generation_date>  (362) 
None

>  <alias>  (362) 
None

>  <original SMILES>  (362) 
Nc1cc2c(cc1NC(=O)C1(OCCO)CCC1)OCO2

>  <HIPPO ID>  (362) 
85762

>  <tags>  (362) 
[]

>  <ref_pdb>  (362) 
c0270a

>  <method>  (362) 
None

>  <ref_url>  (362) 
None

>  <inchikey>  (362) 
LVOVXEHTLLCFGX-UHFFFAOYSA-N

>  <submitter_email>  (362) 
None

>  <ref_mols>  (362) 
c0935a,c1116a

>  <submitter_name>  (362) 
None

$$$$
QBXADWSOQUJCAJ-UHFFFAOYSA-N
     RDKit          3D

 21 23  0  0  0  0  0  0  0  0999 V2000
   15.6030    9.1297    9.1817 N   0  0  0  0  0  0  0  0  0  0  0  0
   15.4175    8.5959   10.4667 C   0  0  0  0  0  0  0  0  0  0  0  0
   15.9626    9.2067   11.6122 C   0  0  0  0  0  0  0  0  0  0  0  0
   16.8173   10.3068   11.4331 N   0  0  0  0  0  0  0  0  0  0  0  0
   17.0818   11.2246   12.4317 C   0  0  0  0  0  0  0  0  0  0  0  0
   17.0708   11.0760   13.6498 O   0  0  0  0  0  0  0  0  0  0  0  0
   17.1350   12.6166   11.8536 C   0  0  0  0  0  0  0  0  0  0  0  0
   18.1889   12.6718   10.8198 O   0  0  0  0  0  0  0  0  0  0  0  0
   19.5831   12.6324   11.2496 C   0  0  0  0  0  0  0  0  0  0  0  0
   20.4002   11.4837   10.6208 C   0  0  0  0  0  0  0  0  0  0  0  0
   21.1237   10.7466   11.5937 O   0  0  0  0  0  0  0  0  0  0  0  0
   15.5642   12.8723   11.5754 C   0  0  0  0  0  0  0  0  0  0  0  0
   15.5038   13.6711   12.8719 C   0  0  0  0  0  0  0  0  0  0  0  0
   17.0231   13.8606   12.7776 C   0  0  0  0  0  0  0  0  0  0  0  0
   15.6470    8.7459   12.9073 C   0  0  0  0  0  0  0  0  0  0  0  0
   14.7907    7.6823   13.1021 C   0  0  0  0  0  0  0  0  0  0  0  0
   14.2484    7.1129   11.9859 C   0  0  0  0  0  0  0  0  0  0  0  0
   14.5188    7.5630   10.6994 C   0  0  0  0  0  0  0  0  0  0  0  0
   13.7901    6.6736    9.7709 C   0  0  0  0  0  0  0  0  0  0  0  0
   12.8578    5.9563   10.7404 C   0  0  0  0  0  0  0  0  0  0  0  0
   13.4068    6.0396   12.0611 O   0  0  0  0  0  0  0  0  0  0  0  0
  1  2  1  0
  2  3  2  0
  3  4  1  0
  4  5  1  0
  5  6  2  0
  5  7  1  0
  7  8  1  0
  8  9  1  0
  9 10  1  0
 10 11  1  0
  7 12  1  0
 12 13  1  0
 13 14  1  0
  3 15  1  0
 15 16  2  0
 16 17  1  0
 17 18  2  0
 18 19  1  0
 19 20  1  0
 20 21  1  0
 18  2  1  0
 14  7  1  0
 21 17  1  0
M  END
>  <original ID>  (363) 
QBXADWSOQUJCAJ-UHFFFAOYSA-N

>  <generation_date>  (363) 
None

>  <alias>  (363) 
None

>  <original SMILES>  (363) 
Nc1c(NC(=O)C2(OCCO)CCC2)ccc2c1CCO2

>  <HIPPO ID>  (363) 
85770

>  <tags>  (363) 
[]

>  <ref_pdb>  (363) 
c0270a

>  <method>  (363) 
None

>  <ref_url>  (363) 
None

>  <inchikey>  (363) 
QBXADWSOQUJCAJ-UHFFFAOYSA-N

>  <submitter_email>  (363) 
None

>  <ref_mols>  (363) 
c0935a,c1116a

>  <submitter_name>  (363) 
None

$$$$
RVONYHCTWCRDJF-UHFFFAOYSA-N
     RDKit          3D

 23 26  0  0  0  0  0  0  0  0999 V2000
   17.5861    4.6248   11.7796 O   0  0  0  0  0  0  0  0  0  0  0  0
   16.6935    3.9527   12.3041 C   0  0  0  0  0  0  0  0  0  0  0  0
   15.4063    3.8564   11.8370 N   0  0  0  0  0  0  0  0  0  0  0  0
   14.8226    4.8505   11.0935 C   0  0  0  0  0  0  0  0  0  0  0  0
   13.6798    4.6870   10.4199 N   0  0  0  0  0  0  0  0  0  0  0  0
   13.4006    5.9699    9.9456 O   0  0  0  0  0  0  0  0  0  0  0  0
   14.3948    6.7837   10.4146 C   0  0  0  0  0  0  0  0  0  0  0  0
   14.3782    8.3299   10.2801 C   0  0  0  0  0  0  0  0  0  0  0  0
   13.7460    8.9018    9.0312 C   0  0  0  0  0  0  0  0  0  0  0  0
   15.1990    9.1124    9.3066 C   0  0  0  0  0  0  0  0  0  0  0  0
   15.2920    6.1343   11.1195 N   0  0  0  0  0  0  0  0  0  0  0  0
   17.0224    3.1461   13.5154 C   0  0  0  0  0  0  0  0  0  0  0  0
   18.3623    2.8679   13.7282 C   0  0  0  0  0  0  0  0  0  0  0  0
   18.7418    2.2249   14.8825 C   0  0  0  0  0  0  0  0  0  0  0  0
   17.8678    1.8419   15.8241 N   0  0  0  0  0  0  0  0  0  0  0  0
   16.5577    2.0865   15.6212 C   0  0  0  0  0  0  0  0  0  0  0  0
   15.6433    1.7638   16.6275 N   0  0  0  0  0  0  0  0  0  0  0  0
   16.1627    0.9533   17.7364 C   0  0  0  0  0  0  0  0  0  0  0  0
   15.0986    0.7974   18.8400 C   0  0  0  0  0  0  0  0  0  0  0  0
   15.3486   -0.5823   19.3589 C   0  0  0  0  0  0  0  0  0  0  0  0
   16.1244   -1.2906   18.5327 C   0  0  0  0  0  0  0  0  0  0  0  0
   16.5143   -0.4927   17.3306 C   0  0  0  0  0  0  0  0  0  0  0  0
   16.0987    2.7520   14.4809 C   0  0  0  0  0  0  0  0  0  0  0  0
  1  2  2  0
  2  3  1  0
  3  4  1  0
  4  5  2  0
  5  6  1  0
  6  7  1  0
  7  8  1  0
  8  9  1  0
  9 10  1  0
  7 11  2  0
  2 12  1  0
 12 13  2  0
 13 14  1  0
 14 15  2  0
 15 16  1  0
 16 17  1  0
 17 18  1  0
 18 19  1  0
 19 20  1  0
 20 21  2  0
 21 22  1  0
 16 23  2  0
 11  4  1  0
 23 12  1  0
 10  8  1  0
 22 18  1  0
M  END
>  <original ID>  (364) 
RVONYHCTWCRDJF-UHFFFAOYSA-N

>  <generation_date>  (364) 
None

>  <alias>  (364) 
None

>  <original SMILES>  (364) 
O=C(Nc1noc(C2CC2)n1)c1ccnc(NC2CC=CC2)c1

>  <HIPPO ID>  (364) 
98837

>  <tags>  (364) 
[]

>  <ref_pdb>  (364) 
c0300a

>  <method>  (364) 
None

>  <ref_url>  (364) 
None

>  <inchikey>  (364) 
RVONYHCTWCRDJF-UHFFFAOYSA-N

>  <submitter_email>  (364) 
None

>  <ref_mols>  (364) 
c0316a,c0441a

>  <submitter_name>  (364) 
None

$$$$
QYWGYJFOJRFRHH-UHFFFAOYSA-N
     RDKit          3D

 23 25  0  0  0  0  0  0  0  0999 V2000
   13.7268    8.3834    8.7939 C   0  0  0  0  0  0  0  0  0  0  0  0
   13.9707    7.7139   10.1258 C   0  0  0  0  0  0  0  0  0  0  0  0
   14.9203    8.5850   10.9093 C   0  0  0  0  0  0  0  0  0  0  0  0
   14.3649    6.2933   10.1413 C   0  0  0  0  0  0  0  0  0  0  0  0
   15.2603    5.7252   10.9098 N   0  0  0  0  0  0  0  0  0  0  0  0
   14.9055    4.4121   10.8652 C   0  0  0  0  0  0  0  0  0  0  0  0
   15.4847    3.5039   11.7161 N   0  0  0  0  0  0  0  0  0  0  0  0
   16.6050    3.8577   12.4323 C   0  0  0  0  0  0  0  0  0  0  0  0
   17.4337    4.6787   12.0399 O   0  0  0  0  0  0  0  0  0  0  0  0
   16.8652    3.2499   13.7570 C   0  0  0  0  0  0  0  0  0  0  0  0
   17.9030    3.7801   14.5203 C   0  0  0  0  0  0  0  0  0  0  0  0
   18.1332    3.2423   15.7679 C   0  0  0  0  0  0  0  0  0  0  0  0
   17.4259    2.2213   16.2892 N   0  0  0  0  0  0  0  0  0  0  0  0
   16.4389    1.6987   15.5564 C   0  0  0  0  0  0  0  0  0  0  0  0
   15.7635    0.5637   15.9658 N   0  0  0  0  0  0  0  0  0  0  0  0
   15.8596   -0.0848   17.2636 C   0  0  0  0  0  0  0  0  0  0  0  0
   15.3985    0.7351   18.4685 C   0  0  0  0  0  0  0  0  0  0  0  0
   16.0841    0.0037   19.5853 C   0  0  0  0  0  0  0  0  0  0  0  0
   17.0774   -0.7725   19.1295 C   0  0  0  0  0  0  0  0  0  0  0  0
   17.2129   -0.6792   17.6374 C   0  0  0  0  0  0  0  0  0  0  0  0
   16.1141    2.2175   14.2991 C   0  0  0  0  0  0  0  0  0  0  0  0
   13.8651    4.1482   10.0720 N   0  0  0  0  0  0  0  0  0  0  0  0
   13.4982    5.4024    9.5846 O   0  0  0  0  0  0  0  0  0  0  0  0
  1  2  1  0
  2  3  1  0
  2  4  1  0
  4  5  2  0
  5  6  1  0
  6  7  1  0
  7  8  1  0
  8  9  2  0
  8 10  1  0
 10 11  2  0
 11 12  1  0
 12 13  2  0
 13 14  1  0
 14 15  1  0
 15 16  1  0
 16 17  1  0
 17 18  1  0
 18 19  2  0
 19 20  1  0
 14 21  2  0
  6 22  2  0
 22 23  1  0
 23  4  1  0
 21 10  1  0
 20 16  1  0
M  END
>  <original ID>  (365) 
QYWGYJFOJRFRHH-UHFFFAOYSA-N

>  <generation_date>  (365) 
None

>  <alias>  (365) 
None

>  <original SMILES>  (365) 
CC(C)c1nc(NC(=O)c2ccnc(NC3CC=CC3)c2)no1

>  <HIPPO ID>  (365) 
98838

>  <tags>  (365) 
[]

>  <ref_pdb>  (365) 
c0300a

>  <method>  (365) 
None

>  <ref_url>  (365) 
None

>  <inchikey>  (365) 
QYWGYJFOJRFRHH-UHFFFAOYSA-N

>  <submitter_email>  (365) 
None

>  <ref_mols>  (365) 
c0316a,c0441a

>  <submitter_name>  (365) 
None

$$$$
SFDTUZQHZKCPRN-UHFFFAOYSA-N
     RDKit          3D

 24 27  0  0  0  0  0  0  0  0999 V2000
   17.6023    4.6270   11.7745 O   0  0  0  0  0  0  0  0  0  0  0  0
   16.7306    3.9673   12.3491 C   0  0  0  0  0  0  0  0  0  0  0  0
   15.4243    3.8589   11.9271 N   0  0  0  0  0  0  0  0  0  0  0  0
   14.8077    4.8455   11.1987 C   0  0  0  0  0  0  0  0  0  0  0  0
   13.6007    4.7104   10.6392 N   0  0  0  0  0  0  0  0  0  0  0  0
   13.3881    5.9463   10.0224 O   0  0  0  0  0  0  0  0  0  0  0  0
   14.4780    6.7155   10.3164 C   0  0  0  0  0  0  0  0  0  0  0  0
   14.7891    8.0843    9.6751 C   0  0  0  0  0  0  0  0  0  0  0  0
   13.6481    8.7654    8.9074 C   0  0  0  0  0  0  0  0  0  0  0  0
   14.2766   10.0836    9.3654 C   0  0  0  0  0  0  0  0  0  0  0  0
   14.8021    9.3125   10.5762 C   0  0  0  0  0  0  0  0  0  0  0  0
   15.3442    6.0934   11.0839 N   0  0  0  0  0  0  0  0  0  0  0  0
   17.0931    3.2628   13.6189 C   0  0  0  0  0  0  0  0  0  0  0  0
   18.3014    3.6228   14.2057 C   0  0  0  0  0  0  0  0  0  0  0  0
   18.6710    3.0259   15.3915 C   0  0  0  0  0  0  0  0  0  0  0  0
   17.8997    2.1394   16.0431 N   0  0  0  0  0  0  0  0  0  0  0  0
   16.7063    1.8166   15.5092 C   0  0  0  0  0  0  0  0  0  0  0  0
   15.9083    0.8624   16.1395 N   0  0  0  0  0  0  0  0  0  0  0  0
   16.2275    0.5435   17.5328 C   0  0  0  0  0  0  0  0  0  0  0  0
   15.0008   -0.0390   18.2659 C   0  0  0  0  0  0  0  0  0  0  0  0
   15.5939   -1.0795   19.1580 C   0  0  0  0  0  0  0  0  0  0  0  0
   16.8486   -1.3730   18.8062 C   0  0  0  0  0  0  0  0  0  0  0  0
   17.2993   -0.5548   17.6373 C   0  0  0  0  0  0  0  0  0  0  0  0
   16.2831    2.3462   14.2875 C   0  0  0  0  0  0  0  0  0  0  0  0
  1  2  2  0
  2  3  1  0
  3  4  1  0
  4  5  2  0
  5  6  1  0
  6  7  1  0
  7  8  1  0
  8  9  1  0
  9 10  1  0
 10 11  1  0
  7 12  2  0
  2 13  1  0
 13 14  2  0
 14 15  1  0
 15 16  2  0
 16 17  1  0
 17 18  1  0
 18 19  1  0
 19 20  1  0
 20 21  1  0
 21 22  2  0
 22 23  1  0
 17 24  2  0
 12  4  1  0
 24 13  1  0
 11  8  1  0
 23 19  1  0
M  END
>  <original ID>  (366) 
SFDTUZQHZKCPRN-UHFFFAOYSA-N

>  <generation_date>  (366) 
None

>  <alias>  (366) 
None

>  <original SMILES>  (366) 
O=C(Nc1noc(C2CCC2)n1)c1ccnc(NC2CC=CC2)c1

>  <HIPPO ID>  (366) 
98841

>  <tags>  (366) 
[]

>  <ref_pdb>  (366) 
c0300a

>  <method>  (366) 
None

>  <ref_url>  (366) 
None

>  <inchikey>  (366) 
SFDTUZQHZKCPRN-UHFFFAOYSA-N

>  <submitter_email>  (366) 
None

>  <ref_mols>  (366) 
c0316a,c0441a

>  <submitter_name>  (366) 
None

$$$$
KDAPNLCPIPSDQD-SFHVURJKSA-N
     RDKit          3D

 26 29  0  0  0  0  0  0  0  0999 V2000
   13.6818    7.8631    9.4608 C   0  0  0  0  0  0  0  0  0  0  0  0
   13.8994    7.0712   10.7523 C   0  0  2  0  0  0  0  0  0  0  0  0
   14.6566    5.8491   10.4110 C   0  0  0  0  0  0  0  0  0  0  0  0
   15.6800    5.3708   11.0612 N   0  0  0  0  0  0  0  0  0  0  0  0
   15.4700    4.0439   10.9368 C   0  0  0  0  0  0  0  0  0  0  0  0
   16.0230    3.2269   11.8630 N   0  0  0  0  0  0  0  0  0  0  0  0
   17.1706    3.5742   12.5186 C   0  0  0  0  0  0  0  0  0  0  0  0
   18.0289    4.3459   12.0866 O   0  0  0  0  0  0  0  0  0  0  0  0
   17.3765    2.8807   13.8111 C   0  0  0  0  0  0  0  0  0  0  0  0
   18.6736    2.5463   14.1467 C   0  0  0  0  0  0  0  0  0  0  0  0
   18.9237    1.9686   15.3621 C   0  0  0  0  0  0  0  0  0  0  0  0
   17.9484    1.6773   16.2297 N   0  0  0  0  0  0  0  0  0  0  0  0
   16.6705    1.9538   15.8929 C   0  0  0  0  0  0  0  0  0  0  0  0
   15.6550    1.6765   16.8117 N   0  0  0  0  0  0  0  0  0  0  0  0
   16.0801    0.8654   17.9590 C   0  0  0  0  0  0  0  0  0  0  0  0
   14.9511    0.7372   18.9917 C   0  0  0  0  0  0  0  0  0  0  0  0
   15.1949   -0.6197   19.5691 C   0  0  0  0  0  0  0  0  0  0  0  0
   16.0044   -1.3531   18.7991 C   0  0  0  0  0  0  0  0  0  0  0  0
   16.4354   -0.5906   17.5894 C   0  0  0  0  0  0  0  0  0  0  0  0
   16.3464    2.5852   14.6974 C   0  0  0  0  0  0  0  0  0  0  0  0
   14.5270    3.6895   10.0633 N   0  0  0  0  0  0  0  0  0  0  0  0
   14.0046    4.9157    9.6554 O   0  0  0  0  0  0  0  0  0  0  0  0
   12.7165    6.5143   11.5729 C   0  0  0  0  0  0  0  0  0  0  0  0
   13.0812    6.8048   13.0161 C   0  0  0  0  0  0  0  0  0  0  0  0
   14.0382    7.8545   13.0442 O   0  0  0  0  0  0  0  0  0  0  0  0
   14.6767    7.9239   11.7639 C   0  0  0  0  0  0  0  0  0  0  0  0
  2  1  1  6
  2  3  1  0
  3  4  2  0
  4  5  1  0
  5  6  1  0
  6  7  1  0
  7  8  2  0
  7  9  1  0
  9 10  2  0
 10 11  1  0
 11 12  2  0
 12 13  1  0
 13 14  1  0
 14 15  1  0
 15 16  1  0
 16 17  1  0
 17 18  2  0
 18 19  1  0
 13 20  2  0
  5 21  2  0
 21 22  1  0
  2 23  1  0
 23 24  1  0
 24 25  1  0
 25 26  1  0
 26  2  1  0
 22  3  1  0
 20  9  1  0
 19 15  1  0
M  END
>  <original ID>  (367) 
KDAPNLCPIPSDQD-SFHVURJKSA-N

>  <generation_date>  (367) 
None

>  <alias>  (367) 
None

>  <original SMILES>  (367) 
C[C@]1(c2nc(NC(=O)c3ccnc(NC4CC=CC4)c3)no2)CCOC1

>  <HIPPO ID>  (367) 
98843

>  <tags>  (367) 
[]

>  <ref_pdb>  (367) 
c0300a

>  <method>  (367) 
None

>  <ref_url>  (367) 
None

>  <inchikey>  (367) 
KDAPNLCPIPSDQD-SFHVURJKSA-N

>  <submitter_email>  (367) 
None

>  <ref_mols>  (367) 
c0316a,c0441a

>  <submitter_name>  (367) 
None

$$$$
KDAPNLCPIPSDQD-GOSISDBHSA-N
     RDKit          3D

 26 29  0  0  0  0  0  0  0  0999 V2000
   13.6969    7.8804    9.4691 C   0  0  0  0  0  0  0  0  0  0  0  0
   13.8846    7.0663   10.7510 C   0  0  1  0  0  0  0  0  0  0  0  0
   14.6046    5.8255   10.4068 C   0  0  0  0  0  0  0  0  0  0  0  0
   15.6478    5.3526   11.0313 N   0  0  0  0  0  0  0  0  0  0  0  0
   15.4275    4.0266   10.9312 C   0  0  0  0  0  0  0  0  0  0  0  0
   15.9970    3.2175   11.8549 N   0  0  0  0  0  0  0  0  0  0  0  0
   17.1431    3.5761   12.5072 C   0  0  0  0  0  0  0  0  0  0  0  0
   17.9942    4.3566   12.0767 O   0  0  0  0  0  0  0  0  0  0  0  0
   17.3575    2.8863   13.8005 C   0  0  0  0  0  0  0  0  0  0  0  0
   18.6579    2.5598   14.1312 C   0  0  0  0  0  0  0  0  0  0  0  0
   18.9158    1.9835   15.3458 C   0  0  0  0  0  0  0  0  0  0  0  0
   17.9456    1.6881   16.2180 N   0  0  0  0  0  0  0  0  0  0  0  0
   16.6649    1.9584   15.8865 C   0  0  0  0  0  0  0  0  0  0  0  0
   15.6546    1.6787   16.8099 N   0  0  0  0  0  0  0  0  0  0  0  0
   16.0840    0.8664   17.9545 C   0  0  0  0  0  0  0  0  0  0  0  0
   14.9578    0.7348   18.9901 C   0  0  0  0  0  0  0  0  0  0  0  0
   15.2037   -0.6235   19.5635 C   0  0  0  0  0  0  0  0  0  0  0  0
   16.0124   -1.3541   18.7901 C   0  0  0  0  0  0  0  0  0  0  0  0
   16.4404   -0.5883   17.5813 C   0  0  0  0  0  0  0  0  0  0  0  0
   16.3327    2.5872   14.6917 C   0  0  0  0  0  0  0  0  0  0  0  0
   14.4575    3.6671   10.0900 N   0  0  0  0  0  0  0  0  0  0  0  0
   13.9196    4.8892    9.6908 O   0  0  0  0  0  0  0  0  0  0  0  0
   14.6788    7.8741   11.7728 C   0  0  0  0  0  0  0  0  0  0  0  0
   14.1433    7.4558   13.1184 C   0  0  0  0  0  0  0  0  0  0  0  0
   12.7728    7.1041   12.9081 O   0  0  0  0  0  0  0  0  0  0  0  0
   12.6761    6.5558   11.5784 C   0  0  0  0  0  0  0  0  0  0  0  0
  2  1  1  6
  2  3  1  0
  3  4  2  0
  4  5  1  0
  5  6  1  0
  6  7  1  0
  7  8  2  0
  7  9  1  0
  9 10  2  0
 10 11  1  0
 11 12  2  0
 12 13  1  0
 13 14  1  0
 14 15  1  0
 15 16  1  0
 16 17  1  0
 17 18  2  0
 18 19  1  0
 13 20  2  0
  5 21  2  0
 21 22  1  0
  2 23  1  0
 23 24  1  0
 24 25  1  0
 25 26  1  0
 26  2  1  0
 22  3  1  0
 20  9  1  0
 19 15  1  0
M  END
>  <original ID>  (368) 
KDAPNLCPIPSDQD-GOSISDBHSA-N

>  <generation_date>  (368) 
None

>  <alias>  (368) 
None

>  <original SMILES>  (368) 
C[C@@]1(c2nc(NC(=O)c3ccnc(NC4CC=CC4)c3)no2)CCOC1

>  <HIPPO ID>  (368) 
98844

>  <tags>  (368) 
[]

>  <ref_pdb>  (368) 
c0300a

>  <method>  (368) 
None

>  <ref_url>  (368) 
None

>  <inchikey>  (368) 
KDAPNLCPIPSDQD-GOSISDBHSA-N

>  <submitter_email>  (368) 
None

>  <ref_mols>  (368) 
c0316a,c0441a

>  <submitter_name>  (368) 
None

$$$$
LRNNKMIDGWTQJR-GOSISDBHSA-N
     RDKit          3D

 27 30  0  0  0  0  0  0  0  0999 V2000
   14.0377    8.7421    9.1283 C   0  0  0  0  0  0  0  0  0  0  0  0
   13.2302    7.7756    9.7846 O   0  0  0  0  0  0  0  0  0  0  0  0
   13.7896    7.1153   10.9192 C   0  0  2  0  0  0  0  0  0  0  0  0
   14.5491    5.9433   10.4315 C   0  0  0  0  0  0  0  0  0  0  0  0
   15.6070    5.4377   11.0104 N   0  0  0  0  0  0  0  0  0  0  0  0
   15.3757    4.1141   10.8721 C   0  0  0  0  0  0  0  0  0  0  0  0
   15.9424    3.2710   11.7722 N   0  0  0  0  0  0  0  0  0  0  0  0
   17.0897    3.6101   12.4369 C   0  0  0  0  0  0  0  0  0  0  0  0
   17.9445    4.3922   12.0144 O   0  0  0  0  0  0  0  0  0  0  0  0
   17.3062    2.9099   13.7266 C   0  0  0  0  0  0  0  0  0  0  0  0
   18.6122    2.6035   14.0557 C   0  0  0  0  0  0  0  0  0  0  0  0
   18.8857    2.0308   15.2693 C   0  0  0  0  0  0  0  0  0  0  0  0
   17.9252    1.7251   16.1481 N   0  0  0  0  0  0  0  0  0  0  0  0
   16.6399    1.9788   15.8230 C   0  0  0  0  0  0  0  0  0  0  0  0
   15.6419    1.6975   16.7594 N   0  0  0  0  0  0  0  0  0  0  0  0
   16.0849    0.8956   17.9077 C   0  0  0  0  0  0  0  0  0  0  0  0
   14.9625    0.7590   18.9486 C   0  0  0  0  0  0  0  0  0  0  0  0
   15.2101   -0.5998   19.5201 C   0  0  0  0  0  0  0  0  0  0  0  0
   16.0238   -1.3261   18.7478 C   0  0  0  0  0  0  0  0  0  0  0  0
   16.4530   -0.5579   17.5409 C   0  0  0  0  0  0  0  0  0  0  0  0
   16.2913    2.5967   14.6244 C   0  0  0  0  0  0  0  0  0  0  0  0
   14.3949    3.7928   10.0277 N   0  0  0  0  0  0  0  0  0  0  0  0
   13.8571    5.0347    9.6822 O   0  0  0  0  0  0  0  0  0  0  0  0
   12.7171    6.4963   11.8585 C   0  0  0  0  0  0  0  0  0  0  0  0
   13.3058    6.6527   13.2435 C   0  0  0  0  0  0  0  0  0  0  0  0
   14.0993    7.8322   13.2252 O   0  0  0  0  0  0  0  0  0  0  0  0
   14.6287    7.9704   11.8897 C   0  0  0  0  0  0  0  0  0  0  0  0
  1  2  1  0
  3  2  1  6
  3  4  1  0
  4  5  2  0
  5  6  1  0
  6  7  1  0
  7  8  1  0
  8  9  2  0
  8 10  1  0
 10 11  2  0
 11 12  1  0
 12 13  2  0
 13 14  1  0
 14 15  1  0
 15 16  1  0
 16 17  1  0
 17 18  1  0
 18 19  2  0
 19 20  1  0
 14 21  2  0
  6 22  2  0
 22 23  1  0
  3 24  1  0
 24 25  1  0
 25 26  1  0
 26 27  1  0
 27  3  1  0
 23  4  1  0
 21 10  1  0
 20 16  1  0
M  END
>  <original ID>  (369) 
LRNNKMIDGWTQJR-GOSISDBHSA-N

>  <generation_date>  (369) 
None

>  <alias>  (369) 
None

>  <original SMILES>  (369) 
CO[C@]1(c2nc(NC(=O)c3ccnc(NC4CC=CC4)c3)no2)CCOC1

>  <HIPPO ID>  (369) 
98845

>  <tags>  (369) 
[]

>  <ref_pdb>  (369) 
c0300a

>  <method>  (369) 
None

>  <ref_url>  (369) 
None

>  <inchikey>  (369) 
LRNNKMIDGWTQJR-GOSISDBHSA-N

>  <submitter_email>  (369) 
None

>  <ref_mols>  (369) 
c0316a,c0441a

>  <submitter_name>  (369) 
None

$$$$
LRNNKMIDGWTQJR-SFHVURJKSA-N
     RDKit          3D

 27 30  0  0  0  0  0  0  0  0999 V2000
   11.7523    6.1360   11.4409 C   0  0  0  0  0  0  0  0  0  0  0  0
   12.8514    6.9853   11.6903 O   0  0  0  0  0  0  0  0  0  0  0  0
   13.8572    7.2445   10.6943 C   0  0  1  0  0  0  0  0  0  0  0  0
   14.5256    5.9521   10.4552 C   0  0  0  0  0  0  0  0  0  0  0  0
   15.5155    5.4436   11.1381 N   0  0  0  0  0  0  0  0  0  0  0  0
   15.3213    4.1214   10.9556 C   0  0  0  0  0  0  0  0  0  0  0  0
   15.9045    3.2668   11.8308 N   0  0  0  0  0  0  0  0  0  0  0  0
   17.0654    3.6033   12.4724 C   0  0  0  0  0  0  0  0  0  0  0  0
   17.9169    4.3784   12.0308 O   0  0  0  0  0  0  0  0  0  0  0  0
   17.3001    2.9016   13.7562 C   0  0  0  0  0  0  0  0  0  0  0  0
   18.6094    2.5994   14.0751 C   0  0  0  0  0  0  0  0  0  0  0  0
   18.8894    2.0193   15.2838 C   0  0  0  0  0  0  0  0  0  0  0  0
   17.9336    1.7029   16.1654 N   0  0  0  0  0  0  0  0  0  0  0  0
   16.6461    1.9584   15.8497 C   0  0  0  0  0  0  0  0  0  0  0  0
   15.6510    1.6723   16.7876 N   0  0  0  0  0  0  0  0  0  0  0  0
   16.0969    0.8668   17.9304 C   0  0  0  0  0  0  0  0  0  0  0  0
   14.9794    0.7310   18.9760 C   0  0  0  0  0  0  0  0  0  0  0  0
   15.2286   -0.6288   19.5444 C   0  0  0  0  0  0  0  0  0  0  0  0
   16.0361   -1.3556   18.7660 C   0  0  0  0  0  0  0  0  0  0  0  0
   16.4588   -0.5864   17.5574 C   0  0  0  0  0  0  0  0  0  0  0  0
   16.2909    2.5831   14.6581 C   0  0  0  0  0  0  0  0  0  0  0  0
   14.3889    3.7997   10.0577 N   0  0  0  0  0  0  0  0  0  0  0  0
   13.8913    5.0412    9.6651 O   0  0  0  0  0  0  0  0  0  0  0  0
   13.5552    7.9990    9.4052 C   0  0  0  0  0  0  0  0  0  0  0  0
   14.7400    8.9281    9.2383 C   0  0  0  0  0  0  0  0  0  0  0  0
   15.0790    9.3245   10.5589 O   0  0  0  0  0  0  0  0  0  0  0  0
   14.8122    8.2052   11.4095 C   0  0  0  0  0  0  0  0  0  0  0  0
  1  2  1  0
  3  2  1  1
  3  4  1  0
  4  5  2  0
  5  6  1  0
  6  7  1  0
  7  8  1  0
  8  9  2  0
  8 10  1  0
 10 11  2  0
 11 12  1  0
 12 13  2  0
 13 14  1  0
 14 15  1  0
 15 16  1  0
 16 17  1  0
 17 18  1  0
 18 19  2  0
 19 20  1  0
 14 21  2  0
  6 22  2  0
 22 23  1  0
  3 24  1  0
 24 25  1  0
 25 26  1  0
 26 27  1  0
 27  3  1  0
 23  4  1  0
 21 10  1  0
 20 16  1  0
M  END
>  <original ID>  (370) 
LRNNKMIDGWTQJR-SFHVURJKSA-N

>  <generation_date>  (370) 
None

>  <alias>  (370) 
None

>  <original SMILES>  (370) 
CO[C@@]1(c2nc(NC(=O)c3ccnc(NC4CC=CC4)c3)no2)CCOC1

>  <HIPPO ID>  (370) 
98846

>  <tags>  (370) 
[]

>  <ref_pdb>  (370) 
c0300a

>  <method>  (370) 
None

>  <ref_url>  (370) 
None

>  <inchikey>  (370) 
LRNNKMIDGWTQJR-SFHVURJKSA-N

>  <submitter_email>  (370) 
None

>  <ref_mols>  (370) 
c0316a,c0441a

>  <submitter_name>  (370) 
None

$$$$
IBOXVHAMIPYUHT-UHFFFAOYSA-N
     RDKit          3D

 14 15  0  0  0  0  0  0  0  0999 V2000
   15.6688    8.8157    9.3226 C   0  0  0  0  0  0  0  0  0  0  0  0
   14.4647    8.4487   10.1500 C   0  0  0  0  0  0  0  0  0  0  0  0
   13.9527    7.0393    9.8568 C   0  0  0  0  0  0  0  0  0  0  0  0
   14.7378    8.7220   11.6153 C   0  0  0  0  0  0  0  0  0  0  0  0
   14.9663    7.6838   12.5387 C   0  0  0  0  0  0  0  0  0  0  0  0
   15.1509    7.9406   13.9154 C   0  0  0  0  0  0  0  0  0  0  0  0
   15.0982    9.2372   14.4310 C   0  0  0  0  0  0  0  0  0  0  0  0
   14.8773   10.2475   13.5343 C   0  0  0  0  0  0  0  0  0  0  0  0
   14.7384   11.6126   13.7755 N   0  0  0  0  0  0  0  0  0  0  0  0
   14.5073   12.2562   12.5626 C   0  0  0  0  0  0  0  0  0  0  0  0
   14.4142   13.4521   12.3596 O   0  0  0  0  0  0  0  0  0  0  0  0
   14.4982   11.2520   11.5905 N   0  0  0  0  0  0  0  0  0  0  0  0
   14.3557   11.5630   10.2384 C   0  0  0  0  0  0  0  0  0  0  0  0
   14.7329   10.0080   12.1636 C   0  0  0  0  0  0  0  0  0  0  0  0
  1  2  1  0
  2  3  1  0
  2  4  1  0
  4  5  2  0
  5  6  1  0
  6  7  2  0
  7  8  1  0
  8  9  1  0
  9 10  1  0
 10 11  2  0
 10 12  1  0
 12 13  1  0
 12 14  1  0
 14  4  1  0
 14  8  2  0
M  END
>  <original ID>  (371) 
IBOXVHAMIPYUHT-UHFFFAOYSA-N

>  <generation_date>  (371) 
None

>  <alias>  (371) 
None

>  <original SMILES>  (371) 
CC(C)c1cccc2[nH]c(=O)n(C)c12

>  <HIPPO ID>  (371) 
101619

>  <tags>  (371) 
[]

>  <ref_pdb>  (371) 
c0300a

>  <method>  (371) 
None

>  <ref_url>  (371) 
None

>  <inchikey>  (371) 
IBOXVHAMIPYUHT-UHFFFAOYSA-N

>  <submitter_email>  (371) 
None

>  <ref_mols>  (371) 
c0894a,c1134a

>  <submitter_name>  (371) 
None

$$$$
KVAKLFGAJVRKCG-UHFFFAOYSA-N
     RDKit          3D

 14 15  0  0  0  0  0  0  0  0999 V2000
   13.4965    8.3894    9.0546 C   0  0  0  0  0  0  0  0  0  0  0  0
   14.8505    8.6470    9.6927 C   0  0  0  0  0  0  0  0  0  0  0  0
   15.6277    9.6867    8.9144 C   0  0  0  0  0  0  0  0  0  0  0  0
   14.8101    8.8597   11.2033 C   0  0  0  0  0  0  0  0  0  0  0  0
   14.8799    7.6917   12.0081 C   0  0  0  0  0  0  0  0  0  0  0  0
   14.9898    7.7354   13.3988 C   0  0  0  0  0  0  0  0  0  0  0  0
   15.0190    8.9550   14.0737 C   0  0  0  0  0  0  0  0  0  0  0  0
   14.8823   10.1364   13.3390 C   0  0  0  0  0  0  0  0  0  0  0  0
   14.8239   11.4250   13.8132 N   0  0  0  0  0  0  0  0  0  0  0  0
   14.5985   12.1650   12.7680 C   0  0  0  0  0  0  0  0  0  0  0  0
   14.5049   13.5037   12.7173 N   0  0  0  0  0  0  0  0  0  0  0  0
   14.5058   11.3898   11.6482 N   0  0  0  0  0  0  0  0  0  0  0  0
   13.9173   11.8998   10.4659 C   0  0  0  0  0  0  0  0  0  0  0  0
   14.7641   10.0766   11.9458 C   0  0  0  0  0  0  0  0  0  0  0  0
  1  2  1  0
  2  3  1  0
  2  4  1  0
  4  5  2  0
  5  6  1  0
  6  7  2  0
  7  8  1  0
  8  9  1  0
  9 10  2  0
 10 11  1  0
 10 12  1  0
 12 13  1  0
 12 14  1  0
 14  4  1  0
 14  8  2  0
M  END
>  <original ID>  (372) 
KVAKLFGAJVRKCG-UHFFFAOYSA-N

>  <generation_date>  (372) 
None

>  <alias>  (372) 
None

>  <original SMILES>  (372) 
CC(C)c1cccc2nc(N)n(C)c12

>  <HIPPO ID>  (372) 
101625

>  <tags>  (372) 
[]

>  <ref_pdb>  (372) 
c0300a

>  <method>  (372) 
None

>  <ref_url>  (372) 
None

>  <inchikey>  (372) 
KVAKLFGAJVRKCG-UHFFFAOYSA-N

>  <submitter_email>  (372) 
None

>  <ref_mols>  (372) 
c0894a,c1134a

>  <submitter_name>  (372) 
None

$$$$
YCAHODCZSZRFKI-UHFFFAOYSA-N
     RDKit          3D

 15 16  0  0  0  0  0  0  0  0999 V2000
   13.5392    8.5800    8.9563 C   0  0  0  0  0  0  0  0  0  0  0  0
   14.8578    8.5742    9.6995 C   0  0  0  0  0  0  0  0  0  0  0  0
   15.9236    9.4184    9.0505 C   0  0  0  0  0  0  0  0  0  0  0  0
   14.7934    8.8019   11.2035 C   0  0  0  0  0  0  0  0  0  0  0  0
   14.8866    7.6553   12.0255 C   0  0  0  0  0  0  0  0  0  0  0  0
   15.0291    7.7452   13.4058 C   0  0  0  0  0  0  0  0  0  0  0  0
   15.1942    6.6206   14.1065 F   0  0  0  0  0  0  0  0  0  0  0  0
   15.0468    8.9578   14.0760 C   0  0  0  0  0  0  0  0  0  0  0  0
   14.8894   10.1149   13.3179 C   0  0  0  0  0  0  0  0  0  0  0  0
   14.8382   11.4097   13.7678 N   0  0  0  0  0  0  0  0  0  0  0  0
   14.6104   12.1278   12.7100 C   0  0  0  0  0  0  0  0  0  0  0  0
   14.5112   13.4632   12.6335 N   0  0  0  0  0  0  0  0  0  0  0  0
   14.5305   11.3357   11.6016 N   0  0  0  0  0  0  0  0  0  0  0  0
   13.9564   11.8507   10.4171 C   0  0  0  0  0  0  0  0  0  0  0  0
   14.7625   10.0293   11.9250 C   0  0  0  0  0  0  0  0  0  0  0  0
  1  2  1  0
  2  3  1  0
  2  4  1  0
  4  5  2  0
  5  6  1  0
  6  7  1  0
  6  8  2  0
  8  9  1  0
  9 10  1  0
 10 11  2  0
 11 12  1  0
 11 13  1  0
 13 14  1  0
 13 15  1  0
 15  4  1  0
 15  9  2  0
M  END
>  <original ID>  (373) 
YCAHODCZSZRFKI-UHFFFAOYSA-N

>  <generation_date>  (373) 
None

>  <alias>  (373) 
None

>  <original SMILES>  (373) 
CC(C)c1cc(F)cc2nc(N)n(C)c12

>  <HIPPO ID>  (373) 
101691

>  <tags>  (373) 
[]

>  <ref_pdb>  (373) 
c0300a

>  <method>  (373) 
None

>  <ref_url>  (373) 
None

>  <inchikey>  (373) 
YCAHODCZSZRFKI-UHFFFAOYSA-N

>  <submitter_email>  (373) 
None

>  <ref_mols>  (373) 
c0894a,c1134a

>  <submitter_name>  (373) 
None

$$$$
KDSSUDYZNCGFOU-HCJPZQEFSA-N
     RDKit          3D

 15 18  0  0  0  0  0  0  0  0999 V2000
   14.4101   10.2265    9.5448 C   0  0  0  0  0  0  0  0  0  0  0  0
   14.6321   10.6640   10.8971 N   0  0  0  0  0  0  0  0  0  0  0  0
   14.4181   11.9337   11.3609 C   0  0  0  0  0  0  0  0  0  0  0  0
   13.7796   12.8283   10.6001 N   0  0  0  0  0  0  0  0  0  0  0  0
   14.7749   12.0642   12.6075 N   0  0  0  0  0  0  0  0  0  0  0  0
   14.9527   10.7792   13.0482 C   0  0  0  0  0  0  0  0  0  0  0  0
   15.2124   10.3093   14.3388 C   0  0  0  0  0  0  0  0  0  0  0  0
   15.2641    8.9287   14.5542 C   0  0  0  0  0  0  0  0  0  0  0  0
   15.0240    8.0324   13.5164 C   0  0  0  0  0  0  0  0  0  0  0  0
   14.7668    8.4754   12.2153 C   0  0  0  0  0  0  0  0  0  0  0  0
   14.3753    7.6438   11.0901 C   0  0  1  0  0  0  0  0  0  0  0  0
   13.6176    6.3790   11.0203 C   0  0  0  0  0  0  0  0  0  0  0  0
   15.0804    6.3536   10.7506 C   0  0  1  0  0  0  0  0  0  0  0  0
   15.1034    7.5272    9.8341 C   0  0  0  0  0  0  0  0  0  0  0  0
   14.8057    9.8691   12.0078 C   0  0  0  0  0  0  0  0  0  0  0  0
  1  2  1  0
  2  3  1  0
  3  4  1  0
  3  5  2  0
  5  6  1  0
  6  7  2  0
  7  8  1  0
  8  9  2  0
  9 10  1  0
 11 10  1  1
 11 12  1  0
 13 12  1  6
 13 14  1  0
 10 15  2  0
 15  2  1  0
 15  6  1  0
 13 11  1  0
 14 11  1  0
M  END
>  <original ID>  (374) 
KDSSUDYZNCGFOU-HCJPZQEFSA-N

>  <generation_date>  (374) 
None

>  <alias>  (374) 
None

>  <original SMILES>  (374) 
Cn1c(N)nc2cccc([C@]34C[C@H]3C4)c21

>  <HIPPO ID>  (374) 
101710

>  <tags>  (374) 
[]

>  <ref_pdb>  (374) 
c0300a

>  <method>  (374) 
None

>  <ref_url>  (374) 
None

>  <inchikey>  (374) 
KDSSUDYZNCGFOU-HCJPZQEFSA-N

>  <submitter_email>  (374) 
None

>  <ref_mols>  (374) 
c0894a,c1134a

>  <submitter_name>  (374) 
None

$$$$
BLAYPWXDWCKVHA-UHFFFAOYSA-N
     RDKit          3D

 15 16  0  0  0  0  0  0  0  0999 V2000
   14.4039   11.7254   10.3142 C   0  0  0  0  0  0  0  0  0  0  0  0
   14.5494   11.3648   11.6622 N   0  0  0  0  0  0  0  0  0  0  0  0
   14.5595   12.2410   12.7014 C   0  0  0  0  0  0  0  0  0  0  0  0
   14.4746   13.5710   12.5411 N   0  0  0  0  0  0  0  0  0  0  0  0
   14.7762   11.6088   13.8156 N   0  0  0  0  0  0  0  0  0  0  0  0
   14.8573   10.2833   13.4698 C   0  0  0  0  0  0  0  0  0  0  0  0
   15.0592    9.2019   14.3243 C   0  0  0  0  0  0  0  0  0  0  0  0
   15.0751    7.9288   13.7781 C   0  0  0  0  0  0  0  0  0  0  0  0
   14.8720    7.7395   12.4087 C   0  0  0  0  0  0  0  0  0  0  0  0
   14.6359    8.7908   11.4643 C   0  0  0  0  0  0  0  0  0  0  0  0
   14.4555    8.4127    9.9503 C   0  0  0  0  0  0  0  0  0  0  0  0
   13.5642    9.1346    8.9185 C   0  0  0  0  0  0  0  0  0  0  0  0
   13.9822    6.9357    9.8555 C   0  0  0  0  0  0  0  0  0  0  0  0
   15.8469    8.6671    9.4140 C   0  0  0  0  0  0  0  0  0  0  0  0
   14.6952   10.0742   12.0955 C   0  0  0  0  0  0  0  0  0  0  0  0
  1  2  1  0
  2  3  1  0
  3  4  1  0
  3  5  2  0
  5  6  1  0
  6  7  2  0
  7  8  1  0
  8  9  2  0
  9 10  1  0
 10 11  1  0
 11 12  1  0
 11 13  1  0
 11 14  1  0
 10 15  2  0
 15  2  1  0
 15  6  1  0
M  END
>  <original ID>  (375) 
BLAYPWXDWCKVHA-UHFFFAOYSA-N

>  <generation_date>  (375) 
None

>  <alias>  (375) 
None

>  <original SMILES>  (375) 
Cn1c(N)nc2cccc(C(C)(C)C)c21

>  <HIPPO ID>  (375) 
101716

>  <tags>  (375) 
[]

>  <ref_pdb>  (375) 
c0300a

>  <method>  (375) 
None

>  <ref_url>  (375) 
None

>  <inchikey>  (375) 
BLAYPWXDWCKVHA-UHFFFAOYSA-N

>  <submitter_email>  (375) 
None

>  <ref_mols>  (375) 
c0894a,c1134a

>  <submitter_name>  (375) 
None

$$$$
XNNPIWMLWBBZHS-UHFFFAOYSA-N
     RDKit          3D

 15 16  0  0  0  0  0  0  0  0999 V2000
   14.3880   11.7233   10.2956 C   0  0  0  0  0  0  0  0  0  0  0  0
   14.5993   11.3642   11.6095 N   0  0  0  0  0  0  0  0  0  0  0  0
   14.5524   12.3159   12.6268 C   0  0  0  0  0  0  0  0  0  0  0  0
   14.4601   13.5200   12.4806 O   0  0  0  0  0  0  0  0  0  0  0  0
   14.7195   11.6124   13.8088 N   0  0  0  0  0  0  0  0  0  0  0  0
   14.8234   10.2574   13.5018 C   0  0  0  0  0  0  0  0  0  0  0  0
   14.9821    9.2251   14.3823 C   0  0  0  0  0  0  0  0  0  0  0  0
   15.0235    7.9571   13.8273 C   0  0  0  0  0  0  0  0  0  0  0  0
   14.8744    7.7621   12.4336 C   0  0  0  0  0  0  0  0  0  0  0  0
   14.6750    8.8162   11.4902 C   0  0  0  0  0  0  0  0  0  0  0  0
   14.5207    8.4594    9.9735 C   0  0  0  0  0  0  0  0  0  0  0  0
   13.5936    9.1330    8.9373 C   0  0  0  0  0  0  0  0  0  0  0  0
   15.8950    8.7532    9.4088 C   0  0  0  0  0  0  0  0  0  0  0  0
   14.0980    6.9691    9.8765 C   0  0  0  0  0  0  0  0  0  0  0  0
   14.7152   10.0760   12.1035 C   0  0  0  0  0  0  0  0  0  0  0  0
  1  2  1  0
  2  3  1  0
  3  4  2  0
  3  5  1  0
  5  6  1  0
  6  7  2  0
  7  8  1  0
  8  9  2  0
  9 10  1  0
 10 11  1  0
 11 12  1  0
 11 13  1  0
 11 14  1  0
 10 15  2  0
 15  2  1  0
 15  6  1  0
M  END
>  <original ID>  (376) 
XNNPIWMLWBBZHS-UHFFFAOYSA-N

>  <generation_date>  (376) 
None

>  <alias>  (376) 
None

>  <original SMILES>  (376) 
Cn1c(=O)[nH]c2cccc(C(C)(C)C)c21

>  <HIPPO ID>  (376) 
101812

>  <tags>  (376) 
[]

>  <ref_pdb>  (376) 
c0300a

>  <method>  (376) 
None

>  <ref_url>  (376) 
None

>  <inchikey>  (376) 
XNNPIWMLWBBZHS-UHFFFAOYSA-N

>  <submitter_email>  (376) 
None

>  <ref_mols>  (376) 
c0894a,c1134a

>  <submitter_name>  (376) 
None

$$$$
ICWLFOYFTKTZGE-HCJPZQEFSA-N
     RDKit          3D

 15 18  0  0  0  0  0  0  0  0999 V2000
   14.4286   11.4162   10.2304 C   0  0  0  0  0  0  0  0  0  0  0  0
   14.5492   11.3501   11.6333 N   0  0  0  0  0  0  0  0  0  0  0  0
   14.4865   12.4641   12.4825 C   0  0  0  0  0  0  0  0  0  0  0  0
   14.3428   13.6306   12.1725 O   0  0  0  0  0  0  0  0  0  0  0  0
   14.6987   11.9771   13.7737 N   0  0  0  0  0  0  0  0  0  0  0  0
   14.8624   10.5988   13.7109 C   0  0  0  0  0  0  0  0  0  0  0  0
   15.0525    9.7051   14.7294 C   0  0  0  0  0  0  0  0  0  0  0  0
   15.0916    8.3559   14.3795 C   0  0  0  0  0  0  0  0  0  0  0  0
   14.9224    7.9431   13.0422 C   0  0  0  0  0  0  0  0  0  0  0  0
   14.7532    8.8612   11.9858 C   0  0  0  0  0  0  0  0  0  0  0  0
   14.4783    8.4613   10.5869 C   0  0  1  0  0  0  0  0  0  0  0  0
   13.6729    7.3117   10.0796 C   0  0  0  0  0  0  0  0  0  0  0  0
   15.1446    7.2432   10.0439 C   0  0  1  0  0  0  0  0  0  0  0  0
   15.3811    8.5799    9.4206 C   0  0  0  0  0  0  0  0  0  0  0  0
   14.7560   10.1950   12.3815 C   0  0  0  0  0  0  0  0  0  0  0  0
  1  2  1  0
  2  3  1  0
  3  4  2  0
  3  5  1  0
  5  6  1  0
  6  7  2  0
  7  8  1  0
  8  9  2  0
  9 10  1  0
 11 10  1  1
 11 12  1  0
 13 12  1  6
 13 14  1  0
 10 15  2  0
 15  2  1  0
 15  6  1  0
 13 11  1  0
 14 11  1  0
M  END
>  <original ID>  (377) 
ICWLFOYFTKTZGE-HCJPZQEFSA-N

>  <generation_date>  (377) 
None

>  <alias>  (377) 
None

>  <original SMILES>  (377) 
Cn1c(=O)[nH]c2cccc([C@]34C[C@H]3C4)c21

>  <HIPPO ID>  (377) 
101820

>  <tags>  (377) 
[]

>  <ref_pdb>  (377) 
c0300a

>  <method>  (377) 
None

>  <ref_url>  (377) 
None

>  <inchikey>  (377) 
ICWLFOYFTKTZGE-HCJPZQEFSA-N

>  <submitter_email>  (377) 
None

>  <ref_mols>  (377) 
c0894a,c1134a

>  <submitter_name>  (377) 
None

$$$$
GRWYYZJONSMTSV-UHFFFAOYSA-N
     RDKit          3D

 16 17  0  0  0  0  0  0  0  0999 V2000
   14.3912   11.7068   10.2763 C   0  0  0  0  0  0  0  0  0  0  0  0
   14.5441   11.3481   11.6221 N   0  0  0  0  0  0  0  0  0  0  0  0
   14.5554   12.2297   12.6532 C   0  0  0  0  0  0  0  0  0  0  0  0
   14.4839   13.5548   12.4723 N   0  0  0  0  0  0  0  0  0  0  0  0
   14.7679   11.6059   13.7726 N   0  0  0  0  0  0  0  0  0  0  0  0
   14.8522   10.2791   13.4362 C   0  0  0  0  0  0  0  0  0  0  0  0
   15.0726    9.2073   14.2918 C   0  0  0  0  0  0  0  0  0  0  0  0
   15.1114    7.9531   13.7206 C   0  0  0  0  0  0  0  0  0  0  0  0
   15.3739    6.8918   14.4870 F   0  0  0  0  0  0  0  0  0  0  0  0
   14.9020    7.7464   12.3609 C   0  0  0  0  0  0  0  0  0  0  0  0
   14.6453    8.7900   11.4247 C   0  0  0  0  0  0  0  0  0  0  0  0
   14.4839    8.4225    9.9130 C   0  0  0  0  0  0  0  0  0  0  0  0
   14.0209    6.9443    9.8246 C   0  0  0  0  0  0  0  0  0  0  0  0
   13.5829    9.1306    8.8839 C   0  0  0  0  0  0  0  0  0  0  0  0
   15.8755    8.7029    9.3883 C   0  0  0  0  0  0  0  0  0  0  0  0
   14.6920   10.0658   12.0619 C   0  0  0  0  0  0  0  0  0  0  0  0
  1  2  1  0
  2  3  1  0
  3  4  1  0
  3  5  2  0
  5  6  1  0
  6  7  2  0
  7  8  1  0
  8  9  1  0
  8 10  2  0
 10 11  1  0
 11 12  1  0
 12 13  1  0
 12 14  1  0
 12 15  1  0
 11 16  2  0
 16  2  1  0
 16  6  1  0
M  END
>  <original ID>  (378) 
GRWYYZJONSMTSV-UHFFFAOYSA-N

>  <generation_date>  (378) 
None

>  <alias>  (378) 
None

>  <original SMILES>  (378) 
Cn1c(N)nc2cc(F)cc(C(C)(C)C)c21

>  <HIPPO ID>  (378) 
101983

>  <tags>  (378) 
[]

>  <ref_pdb>  (378) 
c0300a

>  <method>  (378) 
None

>  <ref_url>  (378) 
None

>  <inchikey>  (378) 
GRWYYZJONSMTSV-UHFFFAOYSA-N

>  <submitter_email>  (378) 
None

>  <ref_mols>  (378) 
c0894a,c1134a

>  <submitter_name>  (378) 
None

$$$$
DAFBJLLKCSVAPR-KEYALVSWSA-N
     RDKit          3D

 16 19  0  0  0  0  0  0  0  0999 V2000
   14.3966   10.0766    9.3884 C   0  0  0  0  0  0  0  0  0  0  0  0
   14.6362   10.4480   10.7518 N   0  0  0  0  0  0  0  0  0  0  0  0
   14.5237   11.7121   11.2672 C   0  0  0  0  0  0  0  0  0  0  0  0
   13.9897   12.7007   10.5412 N   0  0  0  0  0  0  0  0  0  0  0  0
   14.9038   11.7605   12.5127 N   0  0  0  0  0  0  0  0  0  0  0  0
   15.0321   10.4472   12.8873 C   0  0  0  0  0  0  0  0  0  0  0  0
   15.3307    9.9125   14.1416 C   0  0  0  0  0  0  0  0  0  0  0  0
   15.3787    8.5265   14.2498 C   0  0  0  0  0  0  0  0  0  0  0  0
   15.7010    7.9623   15.4136 F   0  0  0  0  0  0  0  0  0  0  0  0
   15.0638    7.6817   13.2022 C   0  0  0  0  0  0  0  0  0  0  0  0
   14.7068    8.1863   11.9547 C   0  0  0  0  0  0  0  0  0  0  0  0
   14.0762    7.3811   10.9165 C   0  0  2  0  0  0  0  0  0  0  0  0
   14.4815    7.2247    9.5493 C   0  0  0  0  0  0  0  0  0  0  0  0
   14.6708    6.0514   10.4639 C   0  0  2  0  0  0  0  0  0  0  0  0
   13.2994    6.1517   11.0764 C   0  0  0  0  0  0  0  0  0  0  0  0
   14.8019    9.5885   11.8104 C   0  0  0  0  0  0  0  0  0  0  0  0
  1  2  1  0
  2  3  1  0
  3  4  1  0
  3  5  2  0
  5  6  1  0
  6  7  2  0
  7  8  1  0
  8  9  1  0
  8 10  2  0
 10 11  1  0
 12 11  1  1
 12 13  1  0
 14 13  1  6
 14 15  1  0
 11 16  2  0
 16  2  1  0
 16  6  1  0
 14 12  1  0
 15 12  1  0
M  END
>  <original ID>  (379) 
DAFBJLLKCSVAPR-KEYALVSWSA-N

>  <generation_date>  (379) 
None

>  <alias>  (379) 
None

>  <original SMILES>  (379) 
Cn1c(N)nc2cc(F)cc([C@]34C[C@H]3C4)c21

>  <HIPPO ID>  (379) 
102174

>  <tags>  (379) 
[]

>  <ref_pdb>  (379) 
c0300a

>  <method>  (379) 
None

>  <ref_url>  (379) 
None

>  <inchikey>  (379) 
DAFBJLLKCSVAPR-KEYALVSWSA-N

>  <submitter_email>  (379) 
None

>  <ref_mols>  (379) 
c0894a,c1134a

>  <submitter_name>  (379) 
None

$$$$
BNDUQZRSQNAMKG-UHFFFAOYSA-N
     RDKit          3D

 16 18  0  0  0  0  0  0  0  0999 V2000
   13.7752   12.1289   10.6607 C   0  0  0  0  0  0  0  0  0  0  0  0
   14.5416   11.6712   11.7474 N   0  0  0  0  0  0  0  0  0  0  0  0
   14.6018   12.4874   12.8817 C   0  0  0  0  0  0  0  0  0  0  0  0
   14.4716   13.6978   12.8963 O   0  0  0  0  0  0  0  0  0  0  0  0
   14.8722   11.6397   13.9544 N   0  0  0  0  0  0  0  0  0  0  0  0
   14.9176   10.3272   13.4893 C   0  0  0  0  0  0  0  0  0  0  0  0
   15.0606    9.1659   14.2051 C   0  0  0  0  0  0  0  0  0  0  0  0
   15.0108    7.9681   13.4862 C   0  0  0  0  0  0  0  0  0  0  0  0
   14.8551    7.9617   12.0815 C   0  0  0  0  0  0  0  0  0  0  0  0
   14.7430    9.1557   11.3312 C   0  0  0  0  0  0  0  0  0  0  0  0
   14.7174    9.1126    9.8086 C   0  0  0  0  0  0  0  0  0  0  0  0
   13.5744    8.4217    9.1278 C   0  0  0  0  0  0  0  0  0  0  0  0
   12.5980    9.3888    8.7870 O   0  0  0  0  0  0  0  0  0  0  0  0
   15.3635   10.2546    9.0507 C   0  0  0  0  0  0  0  0  0  0  0  0
   16.0439    8.9727    9.1386 C   0  0  0  0  0  0  0  0  0  0  0  0
   14.7413   10.3296   12.1030 C   0  0  0  0  0  0  0  0  0  0  0  0
  1  2  1  0
  2  3  1  0
  3  4  2  0
  3  5  1  0
  5  6  1  0
  6  7  2  0
  7  8  1  0
  8  9  2  0
  9 10  1  0
 10 11  1  0
 11 12  1  0
 12 13  1  0
 11 14  1  0
 14 15  1  0
 10 16  2  0
 16  2  1  0
 16  6  1  0
 15 11  1  0
M  END
>  <original ID>  (380) 
BNDUQZRSQNAMKG-UHFFFAOYSA-N

>  <generation_date>  (380) 
None

>  <alias>  (380) 
None

>  <original SMILES>  (380) 
Cn1c(=O)[nH]c2cccc(C3(CO)CC3)c21

>  <HIPPO ID>  (380) 
102190

>  <tags>  (380) 
[]

>  <ref_pdb>  (380) 
c0300a

>  <method>  (380) 
None

>  <ref_url>  (380) 
None

>  <inchikey>  (380) 
BNDUQZRSQNAMKG-UHFFFAOYSA-N

>  <submitter_email>  (380) 
None

>  <ref_mols>  (380) 
c0894a,c1134a

>  <submitter_name>  (380) 
None

$$$$
MYWJLDVVHRLXQR-UHFFFAOYSA-N
     RDKit          3D

 16 18  0  0  0  0  0  0  0  0999 V2000
   14.5042   10.9151   10.0007 C   0  0  0  0  0  0  0  0  0  0  0  0
   14.6561   10.9602   11.4204 N   0  0  0  0  0  0  0  0  0  0  0  0
   14.5668   12.0850   12.2016 C   0  0  0  0  0  0  0  0  0  0  0  0
   14.4180   13.3249   11.7421 N   0  0  0  0  0  0  0  0  0  0  0  0
   14.7362   11.7971   13.4603 N   0  0  0  0  0  0  0  0  0  0  0  0
   14.7624   10.4368   13.5167 C   0  0  0  0  0  0  0  0  0  0  0  0
   14.8084    9.6218   14.6493 C   0  0  0  0  0  0  0  0  0  0  0  0
   14.6838    8.2453   14.4882 C   0  0  0  0  0  0  0  0  0  0  0  0
   14.5369    7.6940   13.2203 C   0  0  0  0  0  0  0  0  0  0  0  0
   14.5587    8.4749   12.0426 C   0  0  0  0  0  0  0  0  0  0  0  0
   14.6380    7.8464   10.6794 C   0  0  0  0  0  0  0  0  0  0  0  0
   13.4702    7.2868    9.8881 C   0  0  0  0  0  0  0  0  0  0  0  0
   13.2399    8.0719    8.7166 O   0  0  0  0  0  0  0  0  0  0  0  0
   15.7994    8.1476    9.8082 C   0  0  0  0  0  0  0  0  0  0  0  0
   15.8015    6.9150   10.7131 C   0  0  0  0  0  0  0  0  0  0  0  0
   14.6866    9.8663   12.2489 C   0  0  0  0  0  0  0  0  0  0  0  0
  1  2  1  0
  2  3  1  0
  3  4  1  0
  3  5  2  0
  5  6  1  0
  6  7  2  0
  7  8  1  0
  8  9  2  0
  9 10  1  0
 10 11  1  0
 11 12  1  0
 12 13  1  0
 11 14  1  0
 14 15  1  0
 10 16  2  0
 16  2  1  0
 16  6  1  0
 15 11  1  0
M  END
>  <original ID>  (381) 
MYWJLDVVHRLXQR-UHFFFAOYSA-N

>  <generation_date>  (381) 
None

>  <alias>  (381) 
None

>  <original SMILES>  (381) 
Cn1c(N)nc2cccc(C3(CO)CC3)c21

>  <HIPPO ID>  (381) 
102555

>  <tags>  (381) 
[]

>  <ref_pdb>  (381) 
c0300a

>  <method>  (381) 
None

>  <ref_url>  (381) 
None

>  <inchikey>  (381) 
MYWJLDVVHRLXQR-UHFFFAOYSA-N

>  <submitter_email>  (381) 
None

>  <ref_mols>  (381) 
c0894a,c1134a

>  <submitter_name>  (381) 
None

$$$$
BWFQLYBZVXCHDB-UHFFFAOYSA-N
     RDKit          3D

 17 19  0  0  0  0  0  0  0  0999 V2000
   14.4152   11.8666   10.4912 C   0  0  0  0  0  0  0  0  0  0  0  0
   14.5780   11.4352   11.8223 N   0  0  0  0  0  0  0  0  0  0  0  0
   14.5728   12.2734   12.8945 C   0  0  0  0  0  0  0  0  0  0  0  0
   14.4885   13.6066   12.7650 N   0  0  0  0  0  0  0  0  0  0  0  0
   14.7576   11.6024   13.9930 N   0  0  0  0  0  0  0  0  0  0  0  0
   14.8492   10.2889   13.6059 C   0  0  0  0  0  0  0  0  0  0  0  0
   15.0201    9.1644   14.4157 C   0  0  0  0  0  0  0  0  0  0  0  0
   15.0312    7.9060   13.8223 C   0  0  0  0  0  0  0  0  0  0  0  0
   14.8726    7.7727   12.4449 C   0  0  0  0  0  0  0  0  0  0  0  0
   14.7118    8.8774   11.5658 C   0  0  0  0  0  0  0  0  0  0  0  0
   14.5806    8.6949   10.0030 C   0  0  0  0  0  0  0  0  0  0  0  0
   15.9637    8.8601    9.4026 C   0  0  0  0  0  0  0  0  0  0  0  0
   13.8495    7.3610    9.5740 C   0  0  0  0  0  0  0  0  0  0  0  0
   13.4029    8.1632    8.3370 C   0  0  0  0  0  0  0  0  0  0  0  0
   12.9511    7.9518    7.2394 O   0  0  0  0  0  0  0  0  0  0  0  0
   13.6761    9.4605    9.0127 C   0  0  0  0  0  0  0  0  0  0  0  0
   14.7294   10.1367   12.2230 C   0  0  0  0  0  0  0  0  0  0  0  0
  1  2  1  0
  2  3  1  0
  3  4  1  0
  3  5  2  0
  5  6  1  0
  6  7  2  0
  7  8  1  0
  8  9  2  0
  9 10  1  0
 10 11  1  0
 11 12  1  0
 11 13  1  0
 13 14  1  0
 14 15  2  0
 14 16  1  0
 10 17  2  0
 17  2  1  0
 17  6  1  0
 16 11  1  0
M  END
>  <original ID>  (382) 
BWFQLYBZVXCHDB-UHFFFAOYSA-N

>  <generation_date>  (382) 
None

>  <alias>  (382) 
None

>  <original SMILES>  (382) 
Cn1c(N)nc2cccc(C3(C)CC(=O)C3)c21

>  <HIPPO ID>  (382) 
103431

>  <tags>  (382) 
[]

>  <ref_pdb>  (382) 
c0300a

>  <method>  (382) 
None

>  <ref_url>  (382) 
None

>  <inchikey>  (382) 
BWFQLYBZVXCHDB-UHFFFAOYSA-N

>  <submitter_email>  (382) 
None

>  <ref_mols>  (382) 
c0894a,c1134a

>  <submitter_name>  (382) 
None

$$$$
PJOXGRXNBSXXOG-UHFFFAOYSA-N
     RDKit          3D

 17 19  0  0  0  0  0  0  0  0999 V2000
   13.7339   12.0827   10.6323 C   0  0  0  0  0  0  0  0  0  0  0  0
   14.3853   11.6358   11.8135 N   0  0  0  0  0  0  0  0  0  0  0  0
   14.5958   12.4702   12.8654 C   0  0  0  0  0  0  0  0  0  0  0  0
   14.6127   13.7994   12.6998 N   0  0  0  0  0  0  0  0  0  0  0  0
   14.8316   11.7880   13.9502 N   0  0  0  0  0  0  0  0  0  0  0  0
   14.8673   10.4735   13.5512 C   0  0  0  0  0  0  0  0  0  0  0  0
   15.0457    9.3177   14.3194 C   0  0  0  0  0  0  0  0  0  0  0  0
   15.0559    8.0734   13.6813 C   0  0  0  0  0  0  0  0  0  0  0  0
   14.9479    7.9847   12.2937 C   0  0  0  0  0  0  0  0  0  0  0  0
   14.8224    9.1327   11.4803 C   0  0  0  0  0  0  0  0  0  0  0  0
   14.8300    9.0933    9.9770 C   0  0  0  0  0  0  0  0  0  0  0  0
   13.8392    8.1557    9.3589 C   0  0  0  0  0  0  0  0  0  0  0  0
   13.1625    8.8180    8.2061 C   0  0  0  0  0  0  0  0  0  0  0  0
   12.9145    7.8972    7.1954 O   0  0  0  0  0  0  0  0  0  0  0  0
   15.4645   10.2830    9.2197 C   0  0  0  0  0  0  0  0  0  0  0  0
   16.1357    9.0019    9.2611 C   0  0  0  0  0  0  0  0  0  0  0  0
   14.7176   10.3592   12.1728 C   0  0  0  0  0  0  0  0  0  0  0  0
  1  2  1  0
  2  3  1  0
  3  4  1  0
  3  5  2  0
  5  6  1  0
  6  7  2  0
  7  8  1  0
  8  9  2  0
  9 10  1  0
 10 11  1  0
 11 12  1  0
 12 13  1  0
 13 14  1  0
 11 15  1  0
 15 16  1  0
 10 17  2  0
 17  2  1  0
 17  6  1  0
 16 11  1  0
M  END
>  <original ID>  (383) 
PJOXGRXNBSXXOG-UHFFFAOYSA-N

>  <generation_date>  (383) 
None

>  <alias>  (383) 
None

>  <original SMILES>  (383) 
Cn1c(N)nc2cccc(C3(CCO)CC3)c21

>  <HIPPO ID>  (383) 
103442

>  <tags>  (383) 
[]

>  <ref_pdb>  (383) 
c0300a

>  <method>  (383) 
None

>  <ref_url>  (383) 
None

>  <inchikey>  (383) 
PJOXGRXNBSXXOG-UHFFFAOYSA-N

>  <submitter_email>  (383) 
None

>  <ref_mols>  (383) 
c0894a,c1134a

>  <submitter_name>  (383) 
None

$$$$
ZEIDEFMZPGHGAG-UHFFFAOYSA-N
     RDKit          3D

 17 19  0  0  0  0  0  0  0  0999 V2000
   14.5532   11.2763   10.1833 C   0  0  0  0  0  0  0  0  0  0  0  0
   14.7007   11.2165   11.5768 N   0  0  0  0  0  0  0  0  0  0  0  0
   14.5507   12.3370   12.4113 C   0  0  0  0  0  0  0  0  0  0  0  0
   14.4288   13.5023   12.0864 O   0  0  0  0  0  0  0  0  0  0  0  0
   14.6136   11.8553   13.7152 N   0  0  0  0  0  0  0  0  0  0  0  0
   14.6765   10.4681   13.6716 C   0  0  0  0  0  0  0  0  0  0  0  0
   14.6355    9.5933   14.7234 C   0  0  0  0  0  0  0  0  0  0  0  0
   14.5362    8.2439   14.4060 C   0  0  0  0  0  0  0  0  0  0  0  0
   14.4776    7.8184   13.0645 C   0  0  0  0  0  0  0  0  0  0  0  0
   14.5753    8.7058   11.9588 C   0  0  0  0  0  0  0  0  0  0  0  0
   14.6804    8.1149   10.5498 C   0  0  0  0  0  0  0  0  0  0  0  0
   13.5332    7.6630    9.6400 C   0  0  0  0  0  0  0  0  0  0  0  0
   13.3353    8.5361    8.3939 C   0  0  0  0  0  0  0  0  0  0  0  0
   12.4280    9.5956    8.5668 O   0  0  0  0  0  0  0  0  0  0  0  0
   15.9135    8.3266    9.7633 C   0  0  0  0  0  0  0  0  0  0  0  0
   15.7736    7.0914   10.6396 C   0  0  0  0  0  0  0  0  0  0  0  0
   14.6941   10.0484   12.3344 C   0  0  0  0  0  0  0  0  0  0  0  0
  1  2  1  0
  2  3  1  0
  3  4  2  0
  3  5  1  0
  5  6  1  0
  6  7  2  0
  7  8  1  0
  8  9  2  0
  9 10  1  0
 10 11  1  0
 11 12  1  0
 12 13  1  0
 13 14  1  0
 11 15  1  0
 15 16  1  0
 10 17  2  0
 17  2  1  0
 17  6  1  0
 16 11  1  0
M  END
>  <original ID>  (384) 
ZEIDEFMZPGHGAG-UHFFFAOYSA-N

>  <generation_date>  (384) 
None

>  <alias>  (384) 
None

>  <original SMILES>  (384) 
Cn1c(=O)[nH]c2cccc(C3(CCO)CC3)c21

>  <HIPPO ID>  (384) 
103498

>  <tags>  (384) 
[]

>  <ref_pdb>  (384) 
c0300a

>  <method>  (384) 
None

>  <ref_url>  (384) 
None

>  <inchikey>  (384) 
ZEIDEFMZPGHGAG-UHFFFAOYSA-N

>  <submitter_email>  (384) 
None

>  <ref_mols>  (384) 
c0894a,c1134a

>  <submitter_name>  (384) 
None

$$$$
YVZYJCRRLCYFFU-UHFFFAOYSA-N
     RDKit          3D

 17 19  0  0  0  0  0  0  0  0999 V2000
   14.4043   11.8695   10.4795 C   0  0  0  0  0  0  0  0  0  0  0  0
   14.6693   11.4689   11.7807 N   0  0  0  0  0  0  0  0  0  0  0  0
   14.5833   12.3837   12.8310 C   0  0  0  0  0  0  0  0  0  0  0  0
   14.4766   13.5891   12.7092 O   0  0  0  0  0  0  0  0  0  0  0  0
   14.7162   11.6370   13.9963 N   0  0  0  0  0  0  0  0  0  0  0  0
   14.8180   10.2907   13.6496 C   0  0  0  0  0  0  0  0  0  0  0  0
   14.9286    9.2049   14.4728 C   0  0  0  0  0  0  0  0  0  0  0  0
   14.9554    7.9584   13.8539 C   0  0  0  0  0  0  0  0  0  0  0  0
   14.8494    7.8365   12.4502 C   0  0  0  0  0  0  0  0  0  0  0  0
   14.7287    8.9485   11.5720 C   0  0  0  0  0  0  0  0  0  0  0  0
   14.6228    8.7119    9.9953 C   0  0  0  0  0  0  0  0  0  0  0  0
   16.0013    8.9075    9.3963 C   0  0  0  0  0  0  0  0  0  0  0  0
   13.7068    9.4596    9.0002 C   0  0  0  0  0  0  0  0  0  0  0  0
   13.4468    8.1532    8.3406 C   0  0  0  0  0  0  0  0  0  0  0  0
   12.9966    7.9215    7.2476 O   0  0  0  0  0  0  0  0  0  0  0  0
   13.9050    7.3698    9.5841 C   0  0  0  0  0  0  0  0  0  0  0  0
   14.7550   10.1703   12.2535 C   0  0  0  0  0  0  0  0  0  0  0  0
  1  2  1  0
  2  3  1  0
  3  4  2  0
  3  5  1  0
  5  6  1  0
  6  7  2  0
  7  8  1  0
  8  9  2  0
  9 10  1  0
 10 11  1  0
 11 12  1  0
 11 13  1  0
 13 14  1  0
 14 15  2  0
 14 16  1  0
 10 17  2  0
 17  2  1  0
 17  6  1  0
 16 11  1  0
M  END
>  <original ID>  (385) 
YVZYJCRRLCYFFU-UHFFFAOYSA-N

>  <generation_date>  (385) 
None

>  <alias>  (385) 
None

>  <original SMILES>  (385) 
Cn1c(=O)[nH]c2cccc(C3(C)CC(=O)C3)c21

>  <HIPPO ID>  (385) 
103507

>  <tags>  (385) 
[]

>  <ref_pdb>  (385) 
c0300a

>  <method>  (385) 
None

>  <ref_url>  (385) 
None

>  <inchikey>  (385) 
YVZYJCRRLCYFFU-UHFFFAOYSA-N

>  <submitter_email>  (385) 
None

>  <ref_mols>  (385) 
c0894a,c1134a

>  <submitter_name>  (385) 
None

$$$$
UJQNIWBWTLBUNF-UHFFFAOYSA-N
     RDKit          3D

 16 17  0  0  0  0  0  0  0  0999 V2000
   15.1691   11.3036   14.1055 C   0  0  0  0  0  0  0  0  0  0  0  0
   16.2662   10.6636   13.4544 O   0  0  0  0  0  0  0  0  0  0  0  0
   15.8071    9.7962   12.4986 C   0  0  0  0  0  0  0  0  0  0  0  0
   15.1344    8.6381   12.9196 C   0  0  0  0  0  0  0  0  0  0  0  0
   14.6100    7.7437   11.9945 C   0  0  0  0  0  0  0  0  0  0  0  0
   14.7080    8.0352   10.6474 C   0  0  0  0  0  0  0  0  0  0  0  0
   15.3780    9.1948   10.2277 C   0  0  0  0  0  0  0  0  0  0  0  0
   15.3850    9.4745    8.7671 C   0  0  0  0  0  0  0  0  0  0  0  0
   16.0407   10.0447   11.1422 C   0  0  0  0  0  0  0  0  0  0  0  0
   16.7841   11.1509   10.6373 N   0  0  0  0  0  0  0  0  0  0  0  0
   18.0064   11.6903   11.1207 C   0  0  0  0  0  0  0  0  0  0  0  0
   19.2165   11.2048   10.6051 C   0  0  0  0  0  0  0  0  0  0  0  0
   20.4415   11.7717   10.9559 C   0  0  0  0  0  0  0  0  0  0  0  0
   20.4667   12.8507   11.8305 C   0  0  0  0  0  0  0  0  0  0  0  0
   19.2706   13.3489   12.3526 C   0  0  0  0  0  0  0  0  0  0  0  0
   18.0441   12.7638   12.0097 C   0  0  0  0  0  0  0  0  0  0  0  0
  1  2  1  0
  2  3  1  0
  3  4  2  0
  4  5  1  0
  5  6  2  0
  6  7  1  0
  7  8  1  0
  7  9  2  0
  9 10  1  0
 10 11  1  0
 11 12  2  0
 12 13  1  0
 13 14  2  0
 14 15  1  0
 15 16  2  0
  9  3  1  0
 16 11  1  0
M  END
>  <original ID>  (386) 
UJQNIWBWTLBUNF-UHFFFAOYSA-N

>  <generation_date>  (386) 
None

>  <alias>  (386) 
None

>  <original SMILES>  (386) 
COc1cccc(C)c1Nc1ccccc1

>  <HIPPO ID>  (386) 
104894

>  <tags>  (386) 
[]

>  <ref_pdb>  (386) 
c0270a

>  <method>  (386) 
None

>  <ref_url>  (386) 
None

>  <inchikey>  (386) 
UJQNIWBWTLBUNF-UHFFFAOYSA-N

>  <submitter_email>  (386) 
None

>  <ref_mols>  (386) 
c0692a,c1116a

>  <submitter_name>  (386) 
None

$$$$
JXRCCCJCUJURBQ-UHFFFAOYSA-N
     RDKit          3D

 16 17  0  0  0  0  0  0  0  0999 V2000
   15.8571   10.8075   13.4262 C   0  0  0  0  0  0  0  0  0  0  0  0
   15.6572    9.8467   12.2935 C   0  0  0  0  0  0  0  0  0  0  0  0
   14.9492    8.6565   12.5395 C   0  0  0  0  0  0  0  0  0  0  0  0
   14.5724    7.8137   11.4959 C   0  0  0  0  0  0  0  0  0  0  0  0
   14.8933    8.1550   10.1941 C   0  0  0  0  0  0  0  0  0  0  0  0
   15.6655    9.2848    9.9519 C   0  0  0  0  0  0  0  0  0  0  0  0
   15.9555    9.5167    8.6430 O   0  0  0  0  0  0  0  0  0  0  0  0
   16.0790   10.1442   10.9862 C   0  0  0  0  0  0  0  0  0  0  0  0
   16.7840   11.3403   10.6723 N   0  0  0  0  0  0  0  0  0  0  0  0
   18.0970   11.6969   11.0792 C   0  0  0  0  0  0  0  0  0  0  0  0
   19.1989   11.0509   10.5177 C   0  0  0  0  0  0  0  0  0  0  0  0
   20.5050   11.4291   10.8253 C   0  0  0  0  0  0  0  0  0  0  0  0
   20.7143   12.4684   11.7131 C   0  0  0  0  0  0  0  0  0  0  0  0
   22.0012   12.7449   12.0545 O   0  0  0  0  0  0  0  0  0  0  0  0
   19.6374   13.1708   12.2497 C   0  0  0  0  0  0  0  0  0  0  0  0
   18.3264   12.7852   11.9278 C   0  0  0  0  0  0  0  0  0  0  0  0
  1  2  1  0
  2  3  2  0
  3  4  1  0
  4  5  2  0
  5  6  1  0
  6  7  1  0
  6  8  2  0
  8  9  1  0
  9 10  1  0
 10 11  2  0
 11 12  1  0
 12 13  2  0
 13 14  1  0
 13 15  1  0
 15 16  2  0
  8  2  1  0
 16 10  1  0
M  END
>  <original ID>  (387) 
JXRCCCJCUJURBQ-UHFFFAOYSA-N

>  <generation_date>  (387) 
None

>  <alias>  (387) 
None

>  <original SMILES>  (387) 
Cc1cccc(O)c1Nc1ccc(O)cc1

>  <HIPPO ID>  (387) 
104911

>  <tags>  (387) 
[]

>  <ref_pdb>  (387) 
c0270a

>  <method>  (387) 
None

>  <ref_url>  (387) 
None

>  <inchikey>  (387) 
JXRCCCJCUJURBQ-UHFFFAOYSA-N

>  <submitter_email>  (387) 
None

>  <ref_mols>  (387) 
c0692a,c1116a

>  <submitter_name>  (387) 
None

$$$$
MVOASLKBGWWMPL-UHFFFAOYSA-N
     RDKit          3D

 17 18  0  0  0  0  0  0  0  0999 V2000
   15.7871    9.5756   14.9442 C   0  0  0  0  0  0  0  0  0  0  0  0
   15.8135   10.2368   13.6914 O   0  0  0  0  0  0  0  0  0  0  0  0
   15.4597    9.4822   12.6006 C   0  0  0  0  0  0  0  0  0  0  0  0
   14.7914    8.2519   12.6564 C   0  0  0  0  0  0  0  0  0  0  0  0
   14.3941    7.6240   11.4776 C   0  0  0  0  0  0  0  0  0  0  0  0
   13.2711    6.1050   11.5038 Br  0  0  0  0  0  0  0  0  0  0  0  0
   14.7075    8.1779   10.2547 C   0  0  0  0  0  0  0  0  0  0  0  0
   15.3711    9.4076   10.1973 C   0  0  0  0  0  0  0  0  0  0  0  0
   15.5732    9.9676    8.8464 C   0  0  0  0  0  0  0  0  0  0  0  0
   15.7459   10.0854   11.3629 C   0  0  0  0  0  0  0  0  0  0  0  0
   16.3230   11.3940   11.3478 N   0  0  0  0  0  0  0  0  0  0  0  0
   17.7070   11.7231   11.3739 C   0  0  0  0  0  0  0  0  0  0  0  0
   18.6605   11.0143   10.6489 C   0  0  0  0  0  0  0  0  0  0  0  0
   20.0101   11.3950   10.6556 C   0  0  0  0  0  0  0  0  0  0  0  0
   20.4204   12.5186   11.3645 C   0  0  0  0  0  0  0  0  0  0  0  0
   19.4756   13.2726   12.0524 C   0  0  0  0  0  0  0  0  0  0  0  0
   18.1287   12.8867   12.0426 C   0  0  0  0  0  0  0  0  0  0  0  0
  1  2  1  0
  2  3  1  0
  3  4  2  0
  4  5  1  0
  5  6  1  0
  5  7  2  0
  7  8  1  0
  8  9  1  0
  8 10  2  0
 10 11  1  0
 11 12  1  0
 12 13  2  0
 13 14  1  0
 14 15  2  0
 15 16  1  0
 16 17  2  0
 10  3  1  0
 17 12  1  0
M  END
>  <original ID>  (388) 
MVOASLKBGWWMPL-UHFFFAOYSA-N

>  <generation_date>  (388) 
None

>  <alias>  (388) 
None

>  <original SMILES>  (388) 
COc1cc(Br)cc(C)c1Nc1ccccc1

>  <HIPPO ID>  (388) 
104972

>  <tags>  (388) 
[]

>  <ref_pdb>  (388) 
c0270a

>  <method>  (388) 
None

>  <ref_url>  (388) 
None

>  <inchikey>  (388) 
MVOASLKBGWWMPL-UHFFFAOYSA-N

>  <submitter_email>  (388) 
None

>  <ref_mols>  (388) 
c0692a,c1116a

>  <submitter_name>  (388) 
None

$$$$
WWUWKMRHWAQYGX-UHFFFAOYSA-N
     RDKit          3D

 17 18  0  0  0  0  0  0  0  0999 V2000
   15.1801   11.3906   14.0974 C   0  0  0  0  0  0  0  0  0  0  0  0
   16.2872   10.7246   13.4913 O   0  0  0  0  0  0  0  0  0  0  0  0
   15.8383    9.8539   12.5331 C   0  0  0  0  0  0  0  0  0  0  0  0
   15.1735    8.6906   12.9489 C   0  0  0  0  0  0  0  0  0  0  0  0
   14.6603    7.7964   12.0180 C   0  0  0  0  0  0  0  0  0  0  0  0
   14.7686    8.0904   10.6714 C   0  0  0  0  0  0  0  0  0  0  0  0
   15.4303    9.2576   10.2542 C   0  0  0  0  0  0  0  0  0  0  0  0
   15.4470    9.5212    8.7901 C   0  0  0  0  0  0  0  0  0  0  0  0
   16.0685   10.1167   11.1779 C   0  0  0  0  0  0  0  0  0  0  0  0
   16.7863   11.2615   10.7109 N   0  0  0  0  0  0  0  0  0  0  0  0
   18.0865   11.6886   11.1158 C   0  0  0  0  0  0  0  0  0  0  0  0
   19.2044   11.0754   10.5400 C   0  0  0  0  0  0  0  0  0  0  0  0
   20.5025   11.5107   10.7994 C   0  0  0  0  0  0  0  0  0  0  0  0
   20.6997   12.5958   11.6394 C   0  0  0  0  0  0  0  0  0  0  0  0
   19.6023   13.2388   12.2293 C   0  0  0  0  0  0  0  0  0  0  0  0
   19.8616   14.4310   13.1023 C   0  0  0  0  0  0  0  0  0  0  0  0
   18.2933   12.7798   11.9647 C   0  0  0  0  0  0  0  0  0  0  0  0
  1  2  1  0
  2  3  1  0
  3  4  2  0
  4  5  1  0
  5  6  2  0
  6  7  1  0
  7  8  1  0
  7  9  2  0
  9 10  1  0
 10 11  1  0
 11 12  2  0
 12 13  1  0
 13 14  2  0
 14 15  1  0
 15 16  1  0
 15 17  2  0
  9  3  1  0
 17 11  1  0
M  END
>  <original ID>  (389) 
WWUWKMRHWAQYGX-UHFFFAOYSA-N

>  <generation_date>  (389) 
None

>  <alias>  (389) 
None

>  <original SMILES>  (389) 
COc1cccc(C)c1Nc1cccc(C)c1

>  <HIPPO ID>  (389) 
105019

>  <tags>  (389) 
[]

>  <ref_pdb>  (389) 
c0270a

>  <method>  (389) 
None

>  <ref_url>  (389) 
None

>  <inchikey>  (389) 
WWUWKMRHWAQYGX-UHFFFAOYSA-N

>  <submitter_email>  (389) 
None

>  <ref_mols>  (389) 
c0692a,c1116a

>  <submitter_name>  (389) 
None

$$$$
HZPIOPLTZSFOLI-UHFFFAOYSA-N
     RDKit          3D

 17 18  0  0  0  0  0  0  0  0999 V2000
   15.1582   11.3544   14.0890 C   0  0  0  0  0  0  0  0  0  0  0  0
   16.2626   10.6817   13.4855 O   0  0  0  0  0  0  0  0  0  0  0  0
   15.8099    9.8152   12.5252 C   0  0  0  0  0  0  0  0  0  0  0  0
   15.1550    8.6462   12.9387 C   0  0  0  0  0  0  0  0  0  0  0  0
   14.6415    7.7545   12.0052 C   0  0  0  0  0  0  0  0  0  0  0  0
   14.7418    8.0550   10.6591 C   0  0  0  0  0  0  0  0  0  0  0  0
   15.3940    9.2279   10.2447 C   0  0  0  0  0  0  0  0  0  0  0  0
   15.4101    9.4998    8.7824 C   0  0  0  0  0  0  0  0  0  0  0  0
   16.0281   10.0868   11.1699 C   0  0  0  0  0  0  0  0  0  0  0  0
   16.7347   11.2382   10.7047 N   0  0  0  0  0  0  0  0  0  0  0  0
   18.0360   11.6590   11.1038 C   0  0  0  0  0  0  0  0  0  0  0  0
   19.1500   11.0473   10.5175 C   0  0  0  0  0  0  0  0  0  0  0  0
   20.4521   11.4736   10.7744 C   0  0  0  0  0  0  0  0  0  0  0  0
   20.6453   12.5440   11.6280 C   0  0  0  0  0  0  0  0  0  0  0  0
   21.9014   12.9875   11.9072 O   0  0  0  0  0  0  0  0  0  0  0  0
   19.5555   13.1831   12.2195 C   0  0  0  0  0  0  0  0  0  0  0  0
   18.2472   12.7368   11.9638 C   0  0  0  0  0  0  0  0  0  0  0  0
  1  2  1  0
  2  3  1  0
  3  4  2  0
  4  5  1  0
  5  6  2  0
  6  7  1  0
  7  8  1  0
  7  9  2  0
  9 10  1  0
 10 11  1  0
 11 12  2  0
 12 13  1  0
 13 14  2  0
 14 15  1  0
 14 16  1  0
 16 17  2  0
  9  3  1  0
 17 11  1  0
M  END
>  <original ID>  (390) 
HZPIOPLTZSFOLI-UHFFFAOYSA-N

>  <generation_date>  (390) 
None

>  <alias>  (390) 
None

>  <original SMILES>  (390) 
COc1cccc(C)c1Nc1ccc(O)cc1

>  <HIPPO ID>  (390) 
105068

>  <tags>  (390) 
[]

>  <ref_pdb>  (390) 
c0270a

>  <method>  (390) 
None

>  <ref_url>  (390) 
None

>  <inchikey>  (390) 
HZPIOPLTZSFOLI-UHFFFAOYSA-N

>  <submitter_email>  (390) 
None

>  <ref_mols>  (390) 
c0692a,c1116a

>  <submitter_name>  (390) 
None

$$$$
HVOVWALNOYSJHM-UHFFFAOYSA-N
     RDKit          3D

 17 18  0  0  0  0  0  0  0  0999 V2000
   15.1255   11.4161   14.0164 C   0  0  0  0  0  0  0  0  0  0  0  0
   16.2357   10.6922   13.4859 O   0  0  0  0  0  0  0  0  0  0  0  0
   15.7957    9.8218   12.5232 C   0  0  0  0  0  0  0  0  0  0  0  0
   15.1466    8.6515   12.9408 C   0  0  0  0  0  0  0  0  0  0  0  0
   14.6392    7.7536   12.0099 C   0  0  0  0  0  0  0  0  0  0  0  0
   14.7390    8.0499   10.6625 C   0  0  0  0  0  0  0  0  0  0  0  0
   15.3854    9.2246   10.2445 C   0  0  0  0  0  0  0  0  0  0  0  0
   15.4022    9.4931    8.7816 C   0  0  0  0  0  0  0  0  0  0  0  0
   16.0150   10.0890   11.1673 C   0  0  0  0  0  0  0  0  0  0  0  0
   16.7174   11.2411   10.6973 N   0  0  0  0  0  0  0  0  0  0  0  0
   18.0151   11.6670   11.1030 C   0  0  0  0  0  0  0  0  0  0  0  0
   19.1330   11.0570   10.5279 C   0  0  0  0  0  0  0  0  0  0  0  0
   20.4309   11.4774   10.8094 C   0  0  0  0  0  0  0  0  0  0  0  0
   20.6384   12.5464   11.6755 C   0  0  0  0  0  0  0  0  0  0  0  0
   22.0412   12.9327   12.0358 C   0  0  0  0  0  0  0  0  0  0  0  0
   19.5244   13.1793   12.2502 C   0  0  0  0  0  0  0  0  0  0  0  0
   18.2184   12.7390   11.9699 C   0  0  0  0  0  0  0  0  0  0  0  0
  1  2  1  0
  2  3  1  0
  3  4  2  0
  4  5  1  0
  5  6  2  0
  6  7  1  0
  7  8  1  0
  7  9  2  0
  9 10  1  0
 10 11  1  0
 11 12  2  0
 12 13  1  0
 13 14  2  0
 14 15  1  0
 14 16  1  0
 16 17  2  0
  9  3  1  0
 17 11  1  0
M  END
>  <original ID>  (391) 
HVOVWALNOYSJHM-UHFFFAOYSA-N

>  <generation_date>  (391) 
None

>  <alias>  (391) 
None

>  <original SMILES>  (391) 
COc1cccc(C)c1Nc1ccc(C)cc1

>  <HIPPO ID>  (391) 
105070

>  <tags>  (391) 
[]

>  <ref_pdb>  (391) 
c0270a

>  <method>  (391) 
None

>  <ref_url>  (391) 
None

>  <inchikey>  (391) 
HVOVWALNOYSJHM-UHFFFAOYSA-N

>  <submitter_email>  (391) 
None

>  <ref_mols>  (391) 
c0692a,c1116a

>  <submitter_name>  (391) 
None

$$$$
KSKAHMPVHRMTPS-UHFFFAOYSA-N
     RDKit          3D

 17 18  0  0  0  0  0  0  0  0999 V2000
   15.1573   11.3386   14.1116 C   0  0  0  0  0  0  0  0  0  0  0  0
   16.2614   10.6964   13.4748 O   0  0  0  0  0  0  0  0  0  0  0  0
   15.8078    9.8237   12.5204 C   0  0  0  0  0  0  0  0  0  0  0  0
   15.1546    8.6550   12.9380 C   0  0  0  0  0  0  0  0  0  0  0  0
   14.6413    7.7592   12.0081 C   0  0  0  0  0  0  0  0  0  0  0  0
   14.7391    8.0552   10.6610 C   0  0  0  0  0  0  0  0  0  0  0  0
   15.3898    9.2271   10.2422 C   0  0  0  0  0  0  0  0  0  0  0  0
   15.4040    9.4951    8.7793 C   0  0  0  0  0  0  0  0  0  0  0  0
   16.0254   10.0890   11.1636 C   0  0  0  0  0  0  0  0  0  0  0  0
   16.7339   11.2364   10.6902 N   0  0  0  0  0  0  0  0  0  0  0  0
   18.0281   11.6653   11.0995 C   0  0  0  0  0  0  0  0  0  0  0  0
   19.1501   11.0580   10.5254 C   0  0  0  0  0  0  0  0  0  0  0  0
   20.4462   11.4783   10.8160 C   0  0  0  0  0  0  0  0  0  0  0  0
   20.6313   12.5351   11.6926 C   0  0  0  0  0  0  0  0  0  0  0  0
   22.2320   13.0049   12.0893 Cl  0  0  0  0  0  0  0  0  0  0  0  0
   19.5275   13.1802   12.2584 C   0  0  0  0  0  0  0  0  0  0  0  0
   18.2240   12.7386   11.9697 C   0  0  0  0  0  0  0  0  0  0  0  0
  1  2  1  0
  2  3  1  0
  3  4  2  0
  4  5  1  0
  5  6  2  0
  6  7  1  0
  7  8  1  0
  7  9  2  0
  9 10  1  0
 10 11  1  0
 11 12  2  0
 12 13  1  0
 13 14  2  0
 14 15  1  0
 14 16  1  0
 16 17  2  0
  9  3  1  0
 17 11  1  0
M  END
>  <original ID>  (392) 
KSKAHMPVHRMTPS-UHFFFAOYSA-N

>  <generation_date>  (392) 
None

>  <alias>  (392) 
None

>  <original SMILES>  (392) 
COc1cccc(C)c1Nc1ccc(Cl)cc1

>  <HIPPO ID>  (392) 
105106

>  <tags>  (392) 
[]

>  <ref_pdb>  (392) 
c0270a

>  <method>  (392) 
None

>  <ref_url>  (392) 
None

>  <inchikey>  (392) 
KSKAHMPVHRMTPS-UHFFFAOYSA-N

>  <submitter_email>  (392) 
None

>  <ref_mols>  (392) 
c0692a,c1116a

>  <submitter_name>  (392) 
None

$$$$
TUETUGSJVTUQRD-UHFFFAOYSA-N
     RDKit          3D

 17 18  0  0  0  0  0  0  0  0999 V2000
   15.1438   11.3361   14.1003 C   0  0  0  0  0  0  0  0  0  0  0  0
   16.2492   10.6786   13.4818 O   0  0  0  0  0  0  0  0  0  0  0  0
   15.7965    9.8102   12.5230 C   0  0  0  0  0  0  0  0  0  0  0  0
   15.1489    8.6374   12.9370 C   0  0  0  0  0  0  0  0  0  0  0  0
   14.6377    7.7438   12.0037 C   0  0  0  0  0  0  0  0  0  0  0  0
   14.7340    8.0451   10.6574 C   0  0  0  0  0  0  0  0  0  0  0  0
   15.3792    9.2213   10.2423 C   0  0  0  0  0  0  0  0  0  0  0  0
   15.3956    9.4929    8.7800 C   0  0  0  0  0  0  0  0  0  0  0  0
   16.0091   10.0833   11.1671 C   0  0  0  0  0  0  0  0  0  0  0  0
   16.7079   11.2393   10.7004 N   0  0  0  0  0  0  0  0  0  0  0  0
   18.0061   11.6629   11.1032 C   0  0  0  0  0  0  0  0  0  0  0  0
   19.1214   11.0488   10.5246 C   0  0  0  0  0  0  0  0  0  0  0  0
   20.4202   11.4638   10.8059 C   0  0  0  0  0  0  0  0  0  0  0  0
   20.6135   12.5216   11.6796 C   0  0  0  0  0  0  0  0  0  0  0  0
   22.3785   13.0171   12.1105 Br  0  0  0  0  0  0  0  0  0  0  0  0
   19.5172   13.1745   12.2504 C   0  0  0  0  0  0  0  0  0  0  0  0
   18.2108   12.7380   11.9689 C   0  0  0  0  0  0  0  0  0  0  0  0
  1  2  1  0
  2  3  1  0
  3  4  2  0
  4  5  1  0
  5  6  2  0
  6  7  1  0
  7  8  1  0
  7  9  2  0
  9 10  1  0
 10 11  1  0
 11 12  2  0
 12 13  1  0
 13 14  2  0
 14 15  1  0
 14 16  1  0
 16 17  2  0
  9  3  1  0
 17 11  1  0
M  END
>  <original ID>  (393) 
TUETUGSJVTUQRD-UHFFFAOYSA-N

>  <generation_date>  (393) 
None

>  <alias>  (393) 
None

>  <original SMILES>  (393) 
COc1cccc(C)c1Nc1ccc(Br)cc1

>  <HIPPO ID>  (393) 
105110

>  <tags>  (393) 
[]

>  <ref_pdb>  (393) 
c0270a

>  <method>  (393) 
None

>  <ref_url>  (393) 
None

>  <inchikey>  (393) 
TUETUGSJVTUQRD-UHFFFAOYSA-N

>  <submitter_email>  (393) 
None

>  <ref_mols>  (393) 
c0692a,c1116a

>  <submitter_name>  (393) 
None

$$$$
AYJOZPPSGVWJKC-UHFFFAOYSA-N
     RDKit          3D

 18 19  0  0  0  0  0  0  0  0999 V2000
   13.6731    8.8440    8.4495 C   0  0  0  0  0  0  0  0  0  0  0  0
   14.6075    8.0457    9.1480 O   0  0  0  0  0  0  0  0  0  0  0  0
   14.9868    8.6561   10.3028 C   0  0  0  0  0  0  0  0  0  0  0  0
   15.7278    9.8398   10.2556 C   0  0  0  0  0  0  0  0  0  0  0  0
   15.9838   10.5359   11.4282 C   0  0  0  0  0  0  0  0  0  0  0  0
   16.6568   11.7766   11.4317 N   0  0  0  0  0  0  0  0  0  0  0  0
   18.0550   11.9810   11.3958 C   0  0  0  0  0  0  0  0  0  0  0  0
   18.9158   11.1554   10.6716 C   0  0  0  0  0  0  0  0  0  0  0  0
   20.3009   11.3581   10.6955 C   0  0  0  0  0  0  0  0  0  0  0  0
   20.8366   12.3965   11.4447 C   0  0  0  0  0  0  0  0  0  0  0  0
   22.5383   12.5653   11.5642 Cl  0  0  0  0  0  0  0  0  0  0  0  0
   19.9941   13.2774   12.1140 C   0  0  0  0  0  0  0  0  0  0  0  0
   18.6085   13.0816   12.0716 C   0  0  0  0  0  0  0  0  0  0  0  0
   15.5509    9.9886   12.6438 C   0  0  0  0  0  0  0  0  0  0  0  0
   14.8581    8.7654   12.7098 C   0  0  0  0  0  0  0  0  0  0  0  0
   14.4123    8.2752   14.0552 C   0  0  0  0  0  0  0  0  0  0  0  0
   14.5992    8.0802   11.5159 C   0  0  0  0  0  0  0  0  0  0  0  0
   13.5264    6.2368   11.4712 I   0  0  0  0  0  0  0  0  0  0  0  0
  1  2  1  0
  2  3  1  0
  3  4  2  0
  4  5  1  0
  5  6  1  0
  6  7  1  0
  7  8  2  0
  8  9  1  0
  9 10  2  0
 10 11  1  0
 10 12  1  0
 12 13  2  0
  5 14  2  0
 14 15  1  0
 15 16  1  0
 15 17  2  0
 17 18  1  0
 17  3  1  0
 13  7  1  0
M  END
>  <original ID>  (394) 
AYJOZPPSGVWJKC-UHFFFAOYSA-N

>  <generation_date>  (394) 
None

>  <alias>  (394) 
None

>  <original SMILES>  (394) 
COc1cc(Nc2ccc(Cl)cc2)cc(C)c1I

>  <HIPPO ID>  (394) 
105396

>  <tags>  (394) 
[]

>  <ref_pdb>  (394) 
c0270a

>  <method>  (394) 
None

>  <ref_url>  (394) 
None

>  <inchikey>  (394) 
AYJOZPPSGVWJKC-UHFFFAOYSA-N

>  <submitter_email>  (394) 
None

>  <ref_mols>  (394) 
c0692a,c1116a

>  <submitter_name>  (394) 
None

$$$$
MAEPLVDGKVPTJD-UHFFFAOYSA-N
     RDKit          3D

 18 19  0  0  0  0  0  0  0  0999 V2000
   13.6836    8.8515    8.4553 C   0  0  0  0  0  0  0  0  0  0  0  0
   14.6332    8.0632    9.1447 O   0  0  0  0  0  0  0  0  0  0  0  0
   15.0033    8.6710   10.3039 C   0  0  0  0  0  0  0  0  0  0  0  0
   15.7498    9.8520   10.2627 C   0  0  0  0  0  0  0  0  0  0  0  0
   16.0062   10.5448   11.4377 C   0  0  0  0  0  0  0  0  0  0  0  0
   16.7015   11.7740   11.4525 N   0  0  0  0  0  0  0  0  0  0  0  0
   18.1027   11.9602   11.3811 C   0  0  0  0  0  0  0  0  0  0  0  0
   18.9366   11.1245   10.6377 C   0  0  0  0  0  0  0  0  0  0  0  0
   20.3243   11.3148   10.6157 C   0  0  0  0  0  0  0  0  0  0  0  0
   20.8860   12.3552   11.3361 C   0  0  0  0  0  0  0  0  0  0  0  0
   22.2334   12.5377   11.3771 O   0  0  0  0  0  0  0  0  0  0  0  0
   20.0763   13.2380   12.0359 C   0  0  0  0  0  0  0  0  0  0  0  0
   18.6881   13.0556   12.0383 C   0  0  0  0  0  0  0  0  0  0  0  0
   15.5616    9.9968   12.6492 C   0  0  0  0  0  0  0  0  0  0  0  0
   14.8607    8.7773   12.7093 C   0  0  0  0  0  0  0  0  0  0  0  0
   14.4104    8.2851   14.0526 C   0  0  0  0  0  0  0  0  0  0  0  0
   14.6068    8.0942   11.5135 C   0  0  0  0  0  0  0  0  0  0  0  0
   13.5375    6.2490   11.4600 I   0  0  0  0  0  0  0  0  0  0  0  0
  1  2  1  0
  2  3  1  0
  3  4  2  0
  4  5  1  0
  5  6  1  0
  6  7  1  0
  7  8  2  0
  8  9  1  0
  9 10  2  0
 10 11  1  0
 10 12  1  0
 12 13  2  0
  5 14  2  0
 14 15  1  0
 15 16  1  0
 15 17  2  0
 17 18  1  0
 17  3  1  0
 13  7  1  0
M  END
>  <original ID>  (395) 
MAEPLVDGKVPTJD-UHFFFAOYSA-N

>  <generation_date>  (395) 
None

>  <alias>  (395) 
None

>  <original SMILES>  (395) 
COc1cc(Nc2ccc(O)cc2)cc(C)c1I

>  <HIPPO ID>  (395) 
105429

>  <tags>  (395) 
[]

>  <ref_pdb>  (395) 
c0270a

>  <method>  (395) 
None

>  <ref_url>  (395) 
None

>  <inchikey>  (395) 
MAEPLVDGKVPTJD-UHFFFAOYSA-N

>  <submitter_email>  (395) 
None

>  <ref_mols>  (395) 
c0692a,c1116a

>  <submitter_name>  (395) 
None

$$$$
FUYDZQQTSYTUKK-UHFFFAOYSA-N
     RDKit          3D

 18 19  0  0  0  0  0  0  0  0999 V2000
   14.8774   10.9042   14.5366 C   0  0  0  0  0  0  0  0  0  0  0  0
   16.0093   10.4725   13.7883 O   0  0  0  0  0  0  0  0  0  0  0  0
   15.6172    9.7072   12.7189 C   0  0  0  0  0  0  0  0  0  0  0  0
   15.0693    8.4377   12.9190 C   0  0  0  0  0  0  0  0  0  0  0  0
   14.6867    7.6662   11.8277 C   0  0  0  0  0  0  0  0  0  0  0  0
   14.8599    8.1659   10.5461 C   0  0  0  0  0  0  0  0  0  0  0  0
   15.4221    9.4398   10.3444 C   0  0  0  0  0  0  0  0  0  0  0  0
   15.5502    9.8815    8.9325 C   0  0  0  0  0  0  0  0  0  0  0  0
   15.8282   10.2268   11.4342 C   0  0  0  0  0  0  0  0  0  0  0  0
   16.3823   11.5391   11.3008 N   0  0  0  0  0  0  0  0  0  0  0  0
   17.7754   11.8689   11.4152 C   0  0  0  0  0  0  0  0  0  0  0  0
   18.7556   11.1638   10.7209 C   0  0  0  0  0  0  0  0  0  0  0  0
   18.3943   10.1096    9.9958 F   0  0  0  0  0  0  0  0  0  0  0  0
   20.1090   11.5140   10.7458 C   0  0  0  0  0  0  0  0  0  0  0  0
   20.5219   12.6213   11.4734 C   0  0  0  0  0  0  0  0  0  0  0  0
   19.5725   13.3659   12.1691 C   0  0  0  0  0  0  0  0  0  0  0  0
   18.2172   12.9973   12.1329 C   0  0  0  0  0  0  0  0  0  0  0  0
   17.1049   13.9438   13.0572 Cl  0  0  0  0  0  0  0  0  0  0  0  0
  1  2  1  0
  2  3  1  0
  3  4  2  0
  4  5  1  0
  5  6  2  0
  6  7  1  0
  7  8  1  0
  7  9  2  0
  9 10  1  0
 10 11  1  0
 11 12  2  0
 12 13  1  0
 12 14  1  0
 14 15  2  0
 15 16  1  0
 16 17  2  0
 17 18  1  0
  9  3  1  0
 17 11  1  0
M  END
>  <original ID>  (396) 
FUYDZQQTSYTUKK-UHFFFAOYSA-N

>  <generation_date>  (396) 
None

>  <alias>  (396) 
None

>  <original SMILES>  (396) 
COc1cccc(C)c1Nc1c(F)cccc1Cl

>  <HIPPO ID>  (396) 
105568

>  <tags>  (396) 
[]

>  <ref_pdb>  (396) 
c0270a

>  <method>  (396) 
None

>  <ref_url>  (396) 
None

>  <inchikey>  (396) 
FUYDZQQTSYTUKK-UHFFFAOYSA-N

>  <submitter_email>  (396) 
None

>  <ref_mols>  (396) 
c0692a,c1116a

>  <submitter_name>  (396) 
None

$$$$
VUXIWUICFFRBEX-UHFFFAOYSA-N
     RDKit          3D

 18 19  0  0  0  0  0  0  0  0999 V2000
   15.0736   11.2223   14.2005 C   0  0  0  0  0  0  0  0  0  0  0  0
   16.2019   10.6422   13.5452 O   0  0  0  0  0  0  0  0  0  0  0  0
   15.7800    9.7902   12.5577 C   0  0  0  0  0  0  0  0  0  0  0  0
   15.1502    8.5934   12.9313 C   0  0  0  0  0  0  0  0  0  0  0  0
   14.6593    7.7200   11.9697 C   0  0  0  0  0  0  0  0  0  0  0  0
   14.7689    8.0589   10.6342 C   0  0  0  0  0  0  0  0  0  0  0  0
   15.4030    9.2552   10.2557 C   0  0  0  0  0  0  0  0  0  0  0  0
   15.4385    9.5441    8.7966 C   0  0  0  0  0  0  0  0  0  0  0  0
   16.0007   10.1081   11.2121 C   0  0  0  0  0  0  0  0  0  0  0  0
   16.6722   11.3040   10.7979 N   0  0  0  0  0  0  0  0  0  0  0  0
   17.9948   11.7058   11.1674 C   0  0  0  0  0  0  0  0  0  0  0  0
   19.0654   11.0316   10.5626 C   0  0  0  0  0  0  0  0  0  0  0  0
   20.3927   11.3931   10.7813 C   0  0  0  0  0  0  0  0  0  0  0  0
   20.6694   12.4526   11.6258 C   0  0  0  0  0  0  0  0  0  0  0  0
   22.4682   12.8727   11.9924 Br  0  0  0  0  0  0  0  0  0  0  0  0
   19.6270   13.1709   12.2152 C   0  0  0  0  0  0  0  0  0  0  0  0
   18.2772   12.8154   11.9839 C   0  0  0  0  0  0  0  0  0  0  0  0
   17.2094   13.6373   12.6436 C   0  0  0  0  0  0  0  0  0  0  0  0
  1  2  1  0
  2  3  1  0
  3  4  2  0
  4  5  1  0
  5  6  2  0
  6  7  1  0
  7  8  1  0
  7  9  2  0
  9 10  1  0
 10 11  1  0
 11 12  2  0
 12 13  1  0
 13 14  2  0
 14 15  1  0
 14 16  1  0
 16 17  2  0
 17 18  1  0
  9  3  1  0
 17 11  1  0
M  END
>  <original ID>  (397) 
VUXIWUICFFRBEX-UHFFFAOYSA-N

>  <generation_date>  (397) 
None

>  <alias>  (397) 
None

>  <original SMILES>  (397) 
COc1cccc(C)c1Nc1ccc(Br)cc1C

>  <HIPPO ID>  (397) 
105617

>  <tags>  (397) 
[]

>  <ref_pdb>  (397) 
c0270a

>  <method>  (397) 
None

>  <ref_url>  (397) 
None

>  <inchikey>  (397) 
VUXIWUICFFRBEX-UHFFFAOYSA-N

>  <submitter_email>  (397) 
None

>  <ref_mols>  (397) 
c0692a,c1116a

>  <submitter_name>  (397) 
None

$$$$
VEACBMDDLOEWTN-UHFFFAOYSA-N
     RDKit          3D

 18 19  0  0  0  0  0  0  0  0999 V2000
   15.1699   11.2313   14.2226 C   0  0  0  0  0  0  0  0  0  0  0  0
   16.2783   10.6383   13.5432 O   0  0  0  0  0  0  0  0  0  0  0  0
   15.8296    9.8032   12.5543 C   0  0  0  0  0  0  0  0  0  0  0  0
   15.1769    8.6179   12.9286 C   0  0  0  0  0  0  0  0  0  0  0  0
   14.6686    7.7532   11.9691 C   0  0  0  0  0  0  0  0  0  0  0  0
   14.7809    8.0917   10.6344 C   0  0  0  0  0  0  0  0  0  0  0  0
   15.4348    9.2780   10.2554 C   0  0  0  0  0  0  0  0  0  0  0  0
   15.4630    9.5654    8.7960 C   0  0  0  0  0  0  0  0  0  0  0  0
   16.0540   10.1200   11.2089 C   0  0  0  0  0  0  0  0  0  0  0  0
   16.7503   11.3010   10.7891 N   0  0  0  0  0  0  0  0  0  0  0  0
   18.0737   11.7033   11.1653 C   0  0  0  0  0  0  0  0  0  0  0  0
   19.1476   11.0430   10.5476 C   0  0  0  0  0  0  0  0  0  0  0  0
   20.4753   11.4072   10.7755 C   0  0  0  0  0  0  0  0  0  0  0  0
   20.7469   12.4594   11.6287 C   0  0  0  0  0  0  0  0  0  0  0  0
   22.0213   12.7855   11.8717 F   0  0  0  0  0  0  0  0  0  0  0  0
   19.7137   13.1643   12.2360 C   0  0  0  0  0  0  0  0  0  0  0  0
   18.3783   12.7881   12.0096 C   0  0  0  0  0  0  0  0  0  0  0  0
   17.1594   13.7299   12.7863 Cl  0  0  0  0  0  0  0  0  0  0  0  0
  1  2  1  0
  2  3  1  0
  3  4  2  0
  4  5  1  0
  5  6  2  0
  6  7  1  0
  7  8  1  0
  7  9  2  0
  9 10  1  0
 10 11  1  0
 11 12  2  0
 12 13  1  0
 13 14  2  0
 14 15  1  0
 14 16  1  0
 16 17  2  0
 17 18  1  0
  9  3  1  0
 17 11  1  0
M  END
>  <original ID>  (398) 
VEACBMDDLOEWTN-UHFFFAOYSA-N

>  <generation_date>  (398) 
None

>  <alias>  (398) 
None

>  <original SMILES>  (398) 
COc1cccc(C)c1Nc1ccc(F)cc1Cl

>  <HIPPO ID>  (398) 
105634

>  <tags>  (398) 
[]

>  <ref_pdb>  (398) 
c0270a

>  <method>  (398) 
None

>  <ref_url>  (398) 
None

>  <inchikey>  (398) 
VEACBMDDLOEWTN-UHFFFAOYSA-N

>  <submitter_email>  (398) 
None

>  <ref_mols>  (398) 
c0692a,c1116a

>  <submitter_name>  (398) 
None

$$$$
COAAECGLPKJSNS-UHFFFAOYSA-N
     RDKit          3D

 18 19  0  0  0  0  0  0  0  0999 V2000
   14.9882   11.0397   14.1472 C   0  0  0  0  0  0  0  0  0  0  0  0
   16.0267   10.1740   13.6942 O   0  0  0  0  0  0  0  0  0  0  0  0
   15.5914    9.4589   12.6088 C   0  0  0  0  0  0  0  0  0  0  0  0
   14.8813    8.2712   12.8324 C   0  0  0  0  0  0  0  0  0  0  0  0
   14.3737    7.5585   11.7515 C   0  0  0  0  0  0  0  0  0  0  0  0
   13.1913    6.1050   11.9779 Br  0  0  0  0  0  0  0  0  0  0  0  0
   14.6324    7.9759   10.4632 C   0  0  0  0  0  0  0  0  0  0  0  0
   15.3432    9.1617   10.2407 C   0  0  0  0  0  0  0  0  0  0  0  0
   15.5386    9.5266    8.8161 C   0  0  0  0  0  0  0  0  0  0  0  0
   15.3968   10.9195    8.6513 O   0  0  0  0  0  0  0  0  0  0  0  0
   15.8329    9.9329   11.3147 C   0  0  0  0  0  0  0  0  0  0  0  0
   16.4133   11.2167   11.0891 N   0  0  0  0  0  0  0  0  0  0  0  0
   17.7498   11.6266   11.3204 C   0  0  0  0  0  0  0  0  0  0  0  0
   18.8156   11.0280   10.6488 C   0  0  0  0  0  0  0  0  0  0  0  0
   20.1211   11.5172   10.7699 C   0  0  0  0  0  0  0  0  0  0  0  0
   20.3690   12.6436   11.5464 C   0  0  0  0  0  0  0  0  0  0  0  0
   19.3098   13.2794   12.1929 C   0  0  0  0  0  0  0  0  0  0  0  0
   18.0064   12.7781   12.0730 C   0  0  0  0  0  0  0  0  0  0  0  0
  1  2  1  0
  2  3  1  0
  3  4  2  0
  4  5  1  0
  5  6  1  0
  5  7  2  0
  7  8  1  0
  8  9  1  0
  9 10  1  0
  8 11  2  0
 11 12  1  0
 12 13  1  0
 13 14  2  0
 14 15  1  0
 15 16  2  0
 16 17  1  0
 17 18  2  0
 11  3  1  0
 18 13  1  0
M  END
>  <original ID>  (399) 
COAAECGLPKJSNS-UHFFFAOYSA-N

>  <generation_date>  (399) 
None

>  <alias>  (399) 
None

>  <original SMILES>  (399) 
COc1cc(Br)cc(CO)c1Nc1ccccc1

>  <HIPPO ID>  (399) 
105691

>  <tags>  (399) 
[]

>  <ref_pdb>  (399) 
c0270a

>  <method>  (399) 
None

>  <ref_url>  (399) 
None

>  <inchikey>  (399) 
COAAECGLPKJSNS-UHFFFAOYSA-N

>  <submitter_email>  (399) 
None

>  <ref_mols>  (399) 
c0692a,c1116a

>  <submitter_name>  (399) 
None

$$$$
DPTRWSFAUQVOOT-UHFFFAOYSA-N
     RDKit          3D

 18 19  0  0  0  0  0  0  0  0999 V2000
   15.1764   11.3981   14.0706 C   0  0  0  0  0  0  0  0  0  0  0  0
   16.2801   10.7425   13.4439 O   0  0  0  0  0  0  0  0  0  0  0  0
   15.8252    9.8557   12.5034 C   0  0  0  0  0  0  0  0  0  0  0  0
   15.1591    8.7007   12.9397 C   0  0  0  0  0  0  0  0  0  0  0  0
   14.6402    7.7927   12.0246 C   0  0  0  0  0  0  0  0  0  0  0  0
   14.7377    8.0674   10.6733 C   0  0  0  0  0  0  0  0  0  0  0  0
   15.4001    9.2259   10.2376 C   0  0  0  0  0  0  0  0  0  0  0  0
   15.4046    9.4831    8.7728 C   0  0  0  0  0  0  0  0  0  0  0  0
   16.0540   10.0907   11.1434 C   0  0  0  0  0  0  0  0  0  0  0  0
   16.7887   11.2064   10.6396 N   0  0  0  0  0  0  0  0  0  0  0  0
   18.0478   11.6876   11.0914 C   0  0  0  0  0  0  0  0  0  0  0  0
   19.2176   11.1141   10.5860 C   0  0  0  0  0  0  0  0  0  0  0  0
   20.4700   11.6051   10.9404 C   0  0  0  0  0  0  0  0  0  0  0  0
   21.5711   11.0134   10.4842 F   0  0  0  0  0  0  0  0  0  0  0  0
   20.5998   12.7005   11.7589 C   0  0  0  0  0  0  0  0  0  0  0  0
   19.4439   13.2847   12.2351 C   0  0  0  0  0  0  0  0  0  0  0  0
   19.5755   14.3691   12.9925 F   0  0  0  0  0  0  0  0  0  0  0  0
   18.1695   12.7872   11.9376 C   0  0  0  0  0  0  0  0  0  0  0  0
  1  2  1  0
  2  3  1  0
  3  4  2  0
  4  5  1  0
  5  6  2  0
  6  7  1  0
  7  8  1  0
  7  9  2  0
  9 10  1  0
 10 11  1  0
 11 12  2  0
 12 13  1  0
 13 14  1  0
 13 15  2  0
 15 16  1  0
 16 17  1  0
 16 18  2  0
  9  3  1  0
 18 11  1  0
M  END
>  <original ID>  (400) 
DPTRWSFAUQVOOT-UHFFFAOYSA-N

>  <generation_date>  (400) 
None

>  <alias>  (400) 
None

>  <original SMILES>  (400) 
COc1cccc(C)c1Nc1cc(F)cc(F)c1

>  <HIPPO ID>  (400) 
105693

>  <tags>  (400) 
[]

>  <ref_pdb>  (400) 
c0270a

>  <method>  (400) 
None

>  <ref_url>  (400) 
None

>  <inchikey>  (400) 
DPTRWSFAUQVOOT-UHFFFAOYSA-N

>  <submitter_email>  (400) 
None

>  <ref_mols>  (400) 
c0692a,c1116a

>  <submitter_name>  (400) 
None

$$$$
ZHQNUWFIJVNVSJ-UHFFFAOYSA-N
     RDKit          3D

 18 19  0  0  0  0  0  0  0  0999 V2000
   15.1720   11.2712   14.2058 C   0  0  0  0  0  0  0  0  0  0  0  0
   16.2864   10.6683   13.5430 O   0  0  0  0  0  0  0  0  0  0  0  0
   15.8447    9.8283   12.5553 C   0  0  0  0  0  0  0  0  0  0  0  0
   15.1849    8.6478   12.9338 C   0  0  0  0  0  0  0  0  0  0  0  0
   14.6770    7.7791   11.9779 C   0  0  0  0  0  0  0  0  0  0  0  0
   14.7937    8.1108   10.6423 C   0  0  0  0  0  0  0  0  0  0  0  0
   15.4546    9.2922   10.2593 C   0  0  0  0  0  0  0  0  0  0  0  0
   15.4797    9.5746    8.7988 C   0  0  0  0  0  0  0  0  0  0  0  0
   16.0801   10.1347   11.2095 C   0  0  0  0  0  0  0  0  0  0  0  0
   16.7884   11.3057   10.7811 N   0  0  0  0  0  0  0  0  0  0  0  0
   18.1047   11.7237   11.1742 C   0  0  0  0  0  0  0  0  0  0  0  0
   19.1935   11.0778   10.5622 C   0  0  0  0  0  0  0  0  0  0  0  0
   20.5192   11.4605   10.7883 C   0  0  0  0  0  0  0  0  0  0  0  0
   20.7860   12.5197   11.6402 C   0  0  0  0  0  0  0  0  0  0  0  0
   19.7269   13.1848   12.2503 C   0  0  0  0  0  0  0  0  0  0  0  0
   20.0255   14.2020   13.0732 F   0  0  0  0  0  0  0  0  0  0  0  0
   18.3897   12.8066   12.0258 C   0  0  0  0  0  0  0  0  0  0  0  0
   17.1497   13.7382   12.7821 Cl  0  0  0  0  0  0  0  0  0  0  0  0
  1  2  1  0
  2  3  1  0
  3  4  2  0
  4  5  1  0
  5  6  2  0
  6  7  1  0
  7  8  1  0
  7  9  2  0
  9 10  1  0
 10 11  1  0
 11 12  2  0
 12 13  1  0
 13 14  2  0
 14 15  1  0
 15 16  1  0
 15 17  2  0
 17 18  1  0
  9  3  1  0
 17 11  1  0
M  END
>  <original ID>  (401) 
ZHQNUWFIJVNVSJ-UHFFFAOYSA-N

>  <generation_date>  (401) 
None

>  <alias>  (401) 
None

>  <original SMILES>  (401) 
COc1cccc(C)c1Nc1cccc(F)c1Cl

>  <HIPPO ID>  (401) 
105702

>  <tags>  (401) 
[]

>  <ref_pdb>  (401) 
c0270a

>  <method>  (401) 
None

>  <ref_url>  (401) 
None

>  <inchikey>  (401) 
ZHQNUWFIJVNVSJ-UHFFFAOYSA-N

>  <submitter_email>  (401) 
None

>  <ref_mols>  (401) 
c0692a,c1116a

>  <submitter_name>  (401) 
None

$$$$
QJTDHBXEVLXJOQ-UHFFFAOYSA-N
     RDKit          3D

 18 19  0  0  0  0  0  0  0  0999 V2000
   15.2532   11.4706   14.0413 C   0  0  0  0  0  0  0  0  0  0  0  0
   16.3424   10.7191   13.5037 O   0  0  0  0  0  0  0  0  0  0  0  0
   15.8759    9.8685   12.5374 C   0  0  0  0  0  0  0  0  0  0  0  0
   15.1957    8.7142   12.9537 C   0  0  0  0  0  0  0  0  0  0  0  0
   14.6709    7.8271   12.0233 C   0  0  0  0  0  0  0  0  0  0  0  0
   14.7821    8.1217   10.6774 C   0  0  0  0  0  0  0  0  0  0  0  0
   15.4565    9.2827   10.2603 C   0  0  0  0  0  0  0  0  0  0  0  0
   15.4697    9.5432    8.7954 C   0  0  0  0  0  0  0  0  0  0  0  0
   16.1071   10.1345   11.1835 C   0  0  0  0  0  0  0  0  0  0  0  0
   16.8421   11.2687   10.7154 N   0  0  0  0  0  0  0  0  0  0  0  0
   18.1373   11.7083   11.1352 C   0  0  0  0  0  0  0  0  0  0  0  0
   19.2605   11.1090   10.5415 C   0  0  0  0  0  0  0  0  0  0  0  0
   20.5658   11.5314   10.8136 C   0  0  0  0  0  0  0  0  0  0  0  0
   20.7726   12.5859   11.6905 C   0  0  0  0  0  0  0  0  0  0  0  0
   19.6747   13.1979   12.2868 C   0  0  0  0  0  0  0  0  0  0  0  0
   19.8970   14.2089   13.1383 F   0  0  0  0  0  0  0  0  0  0  0  0
   18.3668   12.7679   12.0227 C   0  0  0  0  0  0  0  0  0  0  0  0
   17.3476   13.4071   12.6165 F   0  0  0  0  0  0  0  0  0  0  0  0
  1  2  1  0
  2  3  1  0
  3  4  2  0
  4  5  1  0
  5  6  2  0
  6  7  1  0
  7  8  1  0
  7  9  2  0
  9 10  1  0
 10 11  1  0
 11 12  2  0
 12 13  1  0
 13 14  2  0
 14 15  1  0
 15 16  1  0
 15 17  2  0
 17 18  1  0
  9  3  1  0
 17 11  1  0
M  END
>  <original ID>  (402) 
QJTDHBXEVLXJOQ-UHFFFAOYSA-N

>  <generation_date>  (402) 
None

>  <alias>  (402) 
None

>  <original SMILES>  (402) 
COc1cccc(C)c1Nc1cccc(F)c1F

>  <HIPPO ID>  (402) 
105706

>  <tags>  (402) 
[]

>  <ref_pdb>  (402) 
c0270a

>  <method>  (402) 
None

>  <ref_url>  (402) 
None

>  <inchikey>  (402) 
QJTDHBXEVLXJOQ-UHFFFAOYSA-N

>  <submitter_email>  (402) 
None

>  <ref_mols>  (402) 
c0692a,c1116a

>  <submitter_name>  (402) 
None

$$$$
LJICKFIKKLUWIZ-UHFFFAOYSA-N
     RDKit          3D

 18 19  0  0  0  0  0  0  0  0999 V2000
   15.1973   10.9612   14.4303 C   0  0  0  0  0  0  0  0  0  0  0  0
   16.2562   10.5626   13.5572 O   0  0  0  0  0  0  0  0  0  0  0  0
   15.7991    9.7481   12.5551 C   0  0  0  0  0  0  0  0  0  0  0  0
   15.1453    8.5506   12.8978 C   0  0  0  0  0  0  0  0  0  0  0  0
   14.6367    7.7042   11.9218 C   0  0  0  0  0  0  0  0  0  0  0  0
   14.7492    8.0691   10.5965 C   0  0  0  0  0  0  0  0  0  0  0  0
   15.4072    9.2608   10.2463 C   0  0  0  0  0  0  0  0  0  0  0  0
   15.4410    9.5777    8.7925 C   0  0  0  0  0  0  0  0  0  0  0  0
   16.0333   10.0845   11.2155 C   0  0  0  0  0  0  0  0  0  0  0  0
   16.7258   11.2611   10.7848 N   0  0  0  0  0  0  0  0  0  0  0  0
   17.9375   11.8317   11.2850 C   0  0  0  0  0  0  0  0  0  0  0  0
   19.1502   11.3257   10.7825 C   0  0  0  0  0  0  0  0  0  0  0  0
   20.3882   11.8910   11.1264 C   0  0  0  0  0  0  0  0  0  0  0  0
   21.6734   11.2990   10.6545 C   0  0  0  0  0  0  0  0  0  0  0  0
   20.4279   12.9893   11.9810 C   0  0  0  0  0  0  0  0  0  0  0  0
   19.2444   13.5164   12.4777 C   0  0  0  0  0  0  0  0  0  0  0  0
   18.0087   12.9410   12.1447 C   0  0  0  0  0  0  0  0  0  0  0  0
   16.4925   13.8124   12.8652 Br  0  0  0  0  0  0  0  0  0  0  0  0
  1  2  1  0
  2  3  1  0
  3  4  2  0
  4  5  1  0
  5  6  2  0
  6  7  1  0
  7  8  1  0
  7  9  2  0
  9 10  1  0
 10 11  1  0
 11 12  2  0
 12 13  1  0
 13 14  1  0
 13 15  2  0
 15 16  1  0
 16 17  2  0
 17 18  1  0
  9  3  1  0
 17 11  1  0
M  END
>  <original ID>  (403) 
LJICKFIKKLUWIZ-UHFFFAOYSA-N

>  <generation_date>  (403) 
None

>  <alias>  (403) 
None

>  <original SMILES>  (403) 
COc1cccc(C)c1Nc1cc(C)ccc1Br

>  <HIPPO ID>  (403) 
105710

>  <tags>  (403) 
[]

>  <ref_pdb>  (403) 
c0270a

>  <method>  (403) 
None

>  <ref_url>  (403) 
None

>  <inchikey>  (403) 
LJICKFIKKLUWIZ-UHFFFAOYSA-N

>  <submitter_email>  (403) 
None

>  <ref_mols>  (403) 
c0692a,c1116a

>  <submitter_name>  (403) 
None

$$$$
YOLPPRWMKRUXIH-UHFFFAOYSA-N
     RDKit          3D

 18 20  0  0  0  0  0  0  0  0999 V2000
   15.3159   11.4455   14.2002 C   0  0  0  0  0  0  0  0  0  0  0  0
   16.3958   10.8131   13.5110 O   0  0  0  0  0  0  0  0  0  0  0  0
   15.9075    9.9295   12.5851 C   0  0  0  0  0  0  0  0  0  0  0  0
   15.2314    8.7837   13.0608 C   0  0  0  0  0  0  0  0  0  0  0  0
   14.6217    7.8959   12.1870 C   0  0  0  0  0  0  0  0  0  0  0  0
   14.6354    8.2261   10.8554 C   0  0  0  0  0  0  0  0  0  0  0  0
   15.3487    9.3384   10.3840 C   0  0  0  0  0  0  0  0  0  0  0  0
   16.1006   10.1577   11.2180 C   0  0  0  0  0  0  0  0  0  0  0  0
   16.8645   11.1977   10.6394 N   0  0  0  0  0  0  0  0  0  0  0  0
   18.0911   11.7415   11.1010 C   0  0  0  0  0  0  0  0  0  0  0  0
   19.2950   11.2361   10.5908 C   0  0  0  0  0  0  0  0  0  0  0  0
   20.5272   11.7808   10.9502 C   0  0  0  0  0  0  0  0  0  0  0  0
   20.5663   12.8555   11.8294 C   0  0  0  0  0  0  0  0  0  0  0  0
   19.3769   13.3728   12.3470 C   0  0  0  0  0  0  0  0  0  0  0  0
   18.1431   12.8107   11.9946 C   0  0  0  0  0  0  0  0  0  0  0  0
   15.1565    9.4577    8.9091 C   0  0  0  0  0  0  0  0  0  0  0  0
   13.8508    8.6774    8.7407 C   0  0  0  0  0  0  0  0  0  0  0  0
   13.9141    7.5354    9.7503 C   0  0  0  0  0  0  0  0  0  0  0  0
  1  2  1  0
  2  3  1  0
  3  4  2  0
  4  5  1  0
  5  6  2  0
  6  7  1  0
  7  8  2  0
  8  9  1  0
  9 10  1  0
 10 11  2  0
 11 12  1  0
 12 13  2  0
 13 14  1  0
 14 15  2  0
  7 16  1  0
 16 17  1  0
 17 18  1  0
  8  3  1  0
 15 10  1  0
 18  6  1  0
M  END
>  <original ID>  (404) 
YOLPPRWMKRUXIH-UHFFFAOYSA-N

>  <generation_date>  (404) 
None

>  <alias>  (404) 
None

>  <original SMILES>  (404) 
COc1ccc2c(c1Nc1ccccc1)CCC2

>  <HIPPO ID>  (404) 
105712

>  <tags>  (404) 
[]

>  <ref_pdb>  (404) 
c0270a

>  <method>  (404) 
None

>  <ref_url>  (404) 
None

>  <inchikey>  (404) 
YOLPPRWMKRUXIH-UHFFFAOYSA-N

>  <submitter_email>  (404) 
None

>  <ref_mols>  (404) 
c0692a,c1116a

>  <submitter_name>  (404) 
None

$$$$
BTHFHSVXLYPQLP-UHFFFAOYSA-N
     RDKit          3D

 18 19  0  0  0  0  0  0  0  0999 V2000
   14.8182   10.9740   14.4624 C   0  0  0  0  0  0  0  0  0  0  0  0
   15.9734   10.4636   13.8024 O   0  0  0  0  0  0  0  0  0  0  0  0
   15.6019    9.7064   12.7202 C   0  0  0  0  0  0  0  0  0  0  0  0
   15.0596    8.4336   12.9145 C   0  0  0  0  0  0  0  0  0  0  0  0
   14.6860    7.6638   11.8195 C   0  0  0  0  0  0  0  0  0  0  0  0
   14.8630    8.1692   10.5407 C   0  0  0  0  0  0  0  0  0  0  0  0
   15.4215    9.4462   10.3456 C   0  0  0  0  0  0  0  0  0  0  0  0
   15.5507    9.8921    8.9351 C   0  0  0  0  0  0  0  0  0  0  0  0
   15.8189   10.2326   11.4393 C   0  0  0  0  0  0  0  0  0  0  0  0
   16.3750   11.5451   11.3133 N   0  0  0  0  0  0  0  0  0  0  0  0
   17.7709   11.8742   11.4233 C   0  0  0  0  0  0  0  0  0  0  0  0
   18.7455   11.1647   10.7227 C   0  0  0  0  0  0  0  0  0  0  0  0
   18.3783   10.1120    9.9980 F   0  0  0  0  0  0  0  0  0  0  0  0
   20.0986   11.5102   10.7422 C   0  0  0  0  0  0  0  0  0  0  0  0
   20.5161   12.6136   11.4710 C   0  0  0  0  0  0  0  0  0  0  0  0
   19.5716   13.3625   12.1712 C   0  0  0  0  0  0  0  0  0  0  0  0
   18.2075   13.0108   12.1414 C   0  0  0  0  0  0  0  0  0  0  0  0
   17.0643   13.9932   13.1088 S   0  0  0  0  0  0  0  0  0  0  0  0
  1  2  1  0
  2  3  1  0
  3  4  2  0
  4  5  1  0
  5  6  2  0
  6  7  1  0
  7  8  1  0
  7  9  2  0
  9 10  1  0
 10 11  1  0
 11 12  2  0
 12 13  1  0
 12 14  1  0
 14 15  2  0
 15 16  1  0
 16 17  2  0
 17 18  1  0
  9  3  1  0
 17 11  1  0
M  END
>  <original ID>  (405) 
BTHFHSVXLYPQLP-UHFFFAOYSA-N

>  <generation_date>  (405) 
None

>  <alias>  (405) 
None

>  <original SMILES>  (405) 
COc1cccc(C)c1Nc1c(F)cccc1S

>  <HIPPO ID>  (405) 
105716

>  <tags>  (405) 
[]

>  <ref_pdb>  (405) 
c0270a

>  <method>  (405) 
None

>  <ref_url>  (405) 
None

>  <inchikey>  (405) 
BTHFHSVXLYPQLP-UHFFFAOYSA-N

>  <submitter_email>  (405) 
None

>  <ref_mols>  (405) 
c0692a,c1116a

>  <submitter_name>  (405) 
None

$$$$
WBHMYTLYHRYLAN-UHFFFAOYSA-N
     RDKit          3D

 19 20  0  0  0  0  0  0  0  0999 V2000
   22.4709   11.5523   10.0426 C   0  0  0  0  0  0  0  0  0  0  0  0
   21.4354   10.8932   10.7685 O   0  0  0  0  0  0  0  0  0  0  0  0
   20.4491   11.7288   11.1959 C   0  0  0  0  0  0  0  0  0  0  0  0
   19.1321   11.3321   10.8724 C   0  0  0  0  0  0  0  0  0  0  0  0
   18.0314   12.0305   11.3599 C   0  0  0  0  0  0  0  0  0  0  0  0
   16.6946   11.6653   11.1134 N   0  0  0  0  0  0  0  0  0  0  0  0
   16.0942   10.4009   10.9587 C   0  0  0  0  0  0  0  0  0  0  0  0
   15.5700   10.0135    9.7223 C   0  0  0  0  0  0  0  0  0  0  0  0
   14.7503    8.8952    9.6157 C   0  0  0  0  0  0  0  0  0  0  0  0
   14.1508    8.6240    8.4519 F   0  0  0  0  0  0  0  0  0  0  0  0
   14.4433    8.1311   10.7245 C   0  0  0  0  0  0  0  0  0  0  0  0
   14.8955    8.5626   11.9617 C   0  0  0  0  0  0  0  0  0  0  0  0
   14.4187    7.9825   13.0703 F   0  0  0  0  0  0  0  0  0  0  0  0
   15.7209    9.6750   12.0900 C   0  0  0  0  0  0  0  0  0  0  0  0
   18.2851   13.2174   12.0565 C   0  0  0  0  0  0  0  0  0  0  0  0
   19.5913   13.6485   12.3528 C   0  0  0  0  0  0  0  0  0  0  0  0
   19.7754   14.9522   13.0463 C   0  0  0  0  0  0  0  0  0  0  0  0
   20.6787   12.8470   12.0038 C   0  0  0  0  0  0  0  0  0  0  0  0
   22.5931   13.2729   12.8719 I   0  0  0  0  0  0  0  0  0  0  0  0
  1  2  1  0
  2  3  1  0
  3  4  2  0
  4  5  1  0
  5  6  1  0
  6  7  1  0
  7  8  2  0
  8  9  1  0
  9 10  1  0
  9 11  2  0
 11 12  1  0
 12 13  1  0
 12 14  2  0
  5 15  2  0
 15 16  1  0
 16 17  1  0
 16 18  2  0
 18 19  1  0
 18  3  1  0
 14  7  1  0
M  END
>  <original ID>  (406) 
WBHMYTLYHRYLAN-UHFFFAOYSA-N

>  <generation_date>  (406) 
None

>  <alias>  (406) 
None

>  <original SMILES>  (406) 
COc1cc(Nc2cc(F)cc(F)c2)cc(C)c1I

>  <HIPPO ID>  (406) 
105896

>  <tags>  (406) 
[]

>  <ref_pdb>  (406) 
c0270a

>  <method>  (406) 
None

>  <ref_url>  (406) 
None

>  <inchikey>  (406) 
WBHMYTLYHRYLAN-UHFFFAOYSA-N

>  <submitter_email>  (406) 
None

>  <ref_mols>  (406) 
c0692a,c1116a

>  <submitter_name>  (406) 
None

$$$$
CQQONVPCCZKVJH-UHFFFAOYSA-N
     RDKit          3D

 19 20  0  0  0  0  0  0  0  0999 V2000
   22.4206   11.1076   11.2320 C   0  0  0  0  0  0  0  0  0  0  0  0
   21.6399   12.0511   10.5281 O   0  0  0  0  0  0  0  0  0  0  0  0
   20.4808   12.2907   11.1898 C   0  0  0  0  0  0  0  0  0  0  0  0
   19.3591   11.5762   10.7822 C   0  0  0  0  0  0  0  0  0  0  0  0
   18.0974   11.9423   11.2371 C   0  0  0  0  0  0  0  0  0  0  0  0
   16.9694   11.3523   10.6309 N   0  0  0  0  0  0  0  0  0  0  0  0
   16.1364   10.2695   10.9805 C   0  0  0  0  0  0  0  0  0  0  0  0
   15.4794    9.6655    9.8918 C   0  0  0  0  0  0  0  0  0  0  0  0
   14.6062    8.5936   10.0523 C   0  0  0  0  0  0  0  0  0  0  0  0
   13.6826    8.2365    8.9401 C   0  0  0  0  0  0  0  0  0  0  0  0
   14.4649    8.0177   11.3062 C   0  0  0  0  0  0  0  0  0  0  0  0
   15.0147    8.6607   12.4098 C   0  0  0  0  0  0  0  0  0  0  0  0
   15.7681    9.8326   12.2529 C   0  0  0  0  0  0  0  0  0  0  0  0
   16.0632   10.8182   13.8395 Br  0  0  0  0  0  0  0  0  0  0  0  0
   17.9983   13.0211   12.1243 C   0  0  0  0  0  0  0  0  0  0  0  0
   19.1427   13.7251   12.5708 C   0  0  0  0  0  0  0  0  0  0  0  0
   18.9713   14.9319   13.4417 C   0  0  0  0  0  0  0  0  0  0  0  0
   20.4007   13.3359   12.1079 C   0  0  0  0  0  0  0  0  0  0  0  0
   22.1799   14.3022   12.7412 I   0  0  0  0  0  0  0  0  0  0  0  0
  1  2  1  0
  2  3  1  0
  3  4  2  0
  4  5  1  0
  5  6  1  0
  6  7  1  0
  7  8  2  0
  8  9  1  0
  9 10  1  0
  9 11  2  0
 11 12  1  0
 12 13  2  0
 13 14  1  0
  5 15  2  0
 15 16  1  0
 16 17  1  0
 16 18  2  0
 18 19  1  0
 18  3  1  0
 13  7  1  0
M  END
>  <original ID>  (407) 
CQQONVPCCZKVJH-UHFFFAOYSA-N

>  <generation_date>  (407) 
None

>  <alias>  (407) 
None

>  <original SMILES>  (407) 
COc1cc(Nc2cc(C)ccc2Br)cc(C)c1I

>  <HIPPO ID>  (407) 
105920

>  <tags>  (407) 
[]

>  <ref_pdb>  (407) 
c0270a

>  <method>  (407) 
None

>  <ref_url>  (407) 
None

>  <inchikey>  (407) 
CQQONVPCCZKVJH-UHFFFAOYSA-N

>  <submitter_email>  (407) 
None

>  <ref_mols>  (407) 
c0692a,c1116a

>  <submitter_name>  (407) 
None

$$$$
IMBHFGBSOMEFJQ-UHFFFAOYSA-N
     RDKit          3D

 19 20  0  0  0  0  0  0  0  0999 V2000
   22.6294   11.7601   10.0957 C   0  0  0  0  0  0  0  0  0  0  0  0
   21.7214   11.0681   10.9460 O   0  0  0  0  0  0  0  0  0  0  0  0
   20.5966   11.7834   11.2240 C   0  0  0  0  0  0  0  0  0  0  0  0
   19.4038   11.2609   10.7070 C   0  0  0  0  0  0  0  0  0  0  0  0
   18.1638   11.7771   11.0738 C   0  0  0  0  0  0  0  0  0  0  0  0
   16.9803   11.2425   10.5023 N   0  0  0  0  0  0  0  0  0  0  0  0
   16.1688   10.1464   10.9161 C   0  0  0  0  0  0  0  0  0  0  0  0
   15.6377    9.3250    9.8974 C   0  0  0  0  0  0  0  0  0  0  0  0
   15.9373    9.5956    8.6232 F   0  0  0  0  0  0  0  0  0  0  0  0
   14.8319    8.2204   10.1446 C   0  0  0  0  0  0  0  0  0  0  0  0
   14.5368    7.8852   11.4523 C   0  0  0  0  0  0  0  0  0  0  0  0
   14.9787    8.7142   12.4834 C   0  0  0  0  0  0  0  0  0  0  0  0
   15.7541    9.8566   12.2184 C   0  0  0  0  0  0  0  0  0  0  0  0
   16.0901   10.8676   13.5717 Cl  0  0  0  0  0  0  0  0  0  0  0  0
   18.1513   12.8817   11.9317 C   0  0  0  0  0  0  0  0  0  0  0  0
   19.3490   13.4468   12.4426 C   0  0  0  0  0  0  0  0  0  0  0  0
   19.2566   14.6581   13.3218 C   0  0  0  0  0  0  0  0  0  0  0  0
   20.5837   12.8741   12.0987 C   0  0  0  0  0  0  0  0  0  0  0  0
   22.3967   13.5832   12.9656 I   0  0  0  0  0  0  0  0  0  0  0  0
  1  2  1  0
  2  3  1  0
  3  4  2  0
  4  5  1  0
  5  6  1  0
  6  7  1  0
  7  8  2  0
  8  9  1  0
  8 10  1  0
 10 11  2  0
 11 12  1  0
 12 13  2  0
 13 14  1  0
  5 15  2  0
 15 16  1  0
 16 17  1  0
 16 18  2  0
 18 19  1  0
 18  3  1  0
 13  7  1  0
M  END
>  <original ID>  (408) 
IMBHFGBSOMEFJQ-UHFFFAOYSA-N

>  <generation_date>  (408) 
None

>  <alias>  (408) 
None

>  <original SMILES>  (408) 
COc1cc(Nc2c(F)cccc2Cl)cc(C)c1I

>  <HIPPO ID>  (408) 
106513

>  <tags>  (408) 
[]

>  <ref_pdb>  (408) 
c0270a

>  <method>  (408) 
None

>  <ref_url>  (408) 
None

>  <inchikey>  (408) 
IMBHFGBSOMEFJQ-UHFFFAOYSA-N

>  <submitter_email>  (408) 
None

>  <ref_mols>  (408) 
c0692a,c1116a

>  <submitter_name>  (408) 
None

$$$$
WZAFRBBDEWGPFX-UHFFFAOYSA-N
     RDKit          3D

 19 20  0  0  0  0  0  0  0  0999 V2000
   15.0557   11.0939   14.1659 C   0  0  0  0  0  0  0  0  0  0  0  0
   16.1597   10.4526   13.5259 O   0  0  0  0  0  0  0  0  0  0  0  0
   15.7162    9.6785   12.4842 C   0  0  0  0  0  0  0  0  0  0  0  0
   14.9974    8.5020   12.7715 C   0  0  0  0  0  0  0  0  0  0  0  0
   14.4706    7.7365   11.7383 C   0  0  0  0  0  0  0  0  0  0  0  0
   13.3436    6.2545   12.0517 Br  0  0  0  0  0  0  0  0  0  0  0  0
   14.6695    8.1224   10.4332 C   0  0  0  0  0  0  0  0  0  0  0  0
   15.3803    9.2963   10.1519 C   0  0  0  0  0  0  0  0  0  0  0  0
   15.4627    9.6448    8.7154 C   0  0  0  0  0  0  0  0  0  0  0  0
   15.9803   10.0724   11.1658 C   0  0  0  0  0  0  0  0  0  0  0  0
   16.6590   11.2881   10.8283 N   0  0  0  0  0  0  0  0  0  0  0  0
   17.9825   11.6791   11.2007 C   0  0  0  0  0  0  0  0  0  0  0  0
   19.0510   11.0165   10.5806 C   0  0  0  0  0  0  0  0  0  0  0  0
   20.3776   11.3893   10.7853 C   0  0  0  0  0  0  0  0  0  0  0  0
   20.6548   12.4516   11.6266 C   0  0  0  0  0  0  0  0  0  0  0  0
   22.4540   12.8840   11.9766 Br  0  0  0  0  0  0  0  0  0  0  0  0
   19.6127   13.1638   12.2241 C   0  0  0  0  0  0  0  0  0  0  0  0
   18.2639   12.7974   12.0057 C   0  0  0  0  0  0  0  0  0  0  0  0
   17.1915   13.6076   12.6726 C   0  0  0  0  0  0  0  0  0  0  0  0
  1  2  1  0
  2  3  1  0
  3  4  2  0
  4  5  1  0
  5  6  1  0
  5  7  2  0
  7  8  1  0
  8  9  1  0
  8 10  2  0
 10 11  1  0
 11 12  1  0
 12 13  2  0
 13 14  1  0
 14 15  2  0
 15 16  1  0
 15 17  1  0
 17 18  2  0
 18 19  1  0
 10  3  1  0
 18 12  1  0
M  END
>  <original ID>  (409) 
WZAFRBBDEWGPFX-UHFFFAOYSA-N

>  <generation_date>  (409) 
None

>  <alias>  (409) 
None

>  <original SMILES>  (409) 
COc1cc(Br)cc(C)c1Nc1ccc(Br)cc1C

>  <HIPPO ID>  (409) 
106539

>  <tags>  (409) 
[]

>  <ref_pdb>  (409) 
c0270a

>  <method>  (409) 
None

>  <ref_url>  (409) 
None

>  <inchikey>  (409) 
WZAFRBBDEWGPFX-UHFFFAOYSA-N

>  <submitter_email>  (409) 
None

>  <ref_mols>  (409) 
c0692a,c1116a

>  <submitter_name>  (409) 
None

$$$$
FCRCTKSAFXVJSN-UHFFFAOYSA-N
     RDKit          3D

 19 21  0  0  0  0  0  0  0  0999 V2000
   15.2980   11.4901   14.1816 C   0  0  0  0  0  0  0  0  0  0  0  0
   16.3872   10.8382   13.5267 O   0  0  0  0  0  0  0  0  0  0  0  0
   15.9053    9.9478   12.6032 C   0  0  0  0  0  0  0  0  0  0  0  0
   15.2478    8.7931   13.0795 C   0  0  0  0  0  0  0  0  0  0  0  0
   14.6451    7.9010   12.2049 C   0  0  0  0  0  0  0  0  0  0  0  0
   14.6548    8.2299   10.8719 C   0  0  0  0  0  0  0  0  0  0  0  0
   15.3504    9.3537   10.3981 C   0  0  0  0  0  0  0  0  0  0  0  0
   16.0808   10.1887   11.2357 C   0  0  0  0  0  0  0  0  0  0  0  0
   16.8071   11.2716   10.6797 N   0  0  0  0  0  0  0  0  0  0  0  0
   18.1005   11.7105   11.0761 C   0  0  0  0  0  0  0  0  0  0  0  0
   19.2200   11.0917   10.5128 C   0  0  0  0  0  0  0  0  0  0  0  0
   20.5177   11.4957   10.8159 C   0  0  0  0  0  0  0  0  0  0  0  0
   20.7226   12.5564   11.6927 C   0  0  0  0  0  0  0  0  0  0  0  0
   22.1218   12.9255   12.0813 C   0  0  0  0  0  0  0  0  0  0  0  0
   19.6078   13.1971   12.2563 C   0  0  0  0  0  0  0  0  0  0  0  0
   18.3024   12.7720   11.9555 C   0  0  0  0  0  0  0  0  0  0  0  0
   15.1620    9.4611    8.9217 C   0  0  0  0  0  0  0  0  0  0  0  0
   13.8693    8.6595    8.7541 C   0  0  0  0  0  0  0  0  0  0  0  0
   13.9413    7.5253    9.7697 C   0  0  0  0  0  0  0  0  0  0  0  0
  1  2  1  0
  2  3  1  0
  3  4  2  0
  4  5  1  0
  5  6  2  0
  6  7  1  0
  7  8  2  0
  8  9  1  0
  9 10  1  0
 10 11  2  0
 11 12  1  0
 12 13  2  0
 13 14  1  0
 13 15  1  0
 15 16  2  0
  7 17  1  0
 17 18  1  0
 18 19  1  0
  8  3  1  0
 16 10  1  0
 19  6  1  0
M  END
>  <original ID>  (410) 
FCRCTKSAFXVJSN-UHFFFAOYSA-N

>  <generation_date>  (410) 
None

>  <alias>  (410) 
None

>  <original SMILES>  (410) 
COc1ccc2c(c1Nc1ccc(C)cc1)CCC2

>  <HIPPO ID>  (410) 
106547

>  <tags>  (410) 
[]

>  <ref_pdb>  (410) 
c0270a

>  <method>  (410) 
None

>  <ref_url>  (410) 
None

>  <inchikey>  (410) 
FCRCTKSAFXVJSN-UHFFFAOYSA-N

>  <submitter_email>  (410) 
None

>  <ref_mols>  (410) 
c0692a,c1116a

>  <submitter_name>  (410) 
None

$$$$
WSSBXJHMELFFDR-UHFFFAOYSA-N
     RDKit          3D

 19 21  0  0  0  0  0  0  0  0999 V2000
   15.3349   11.5230   14.1969 C   0  0  0  0  0  0  0  0  0  0  0  0
   16.4235   10.8775   13.5343 O   0  0  0  0  0  0  0  0  0  0  0  0
   15.9421    9.9882   12.6098 C   0  0  0  0  0  0  0  0  0  0  0  0
   15.2694    8.8402   13.0829 C   0  0  0  0  0  0  0  0  0  0  0  0
   14.6634    7.9533   12.2058 C   0  0  0  0  0  0  0  0  0  0  0  0
   14.6819    8.2832   10.8734 C   0  0  0  0  0  0  0  0  0  0  0  0
   15.3926    9.3995   10.4024 C   0  0  0  0  0  0  0  0  0  0  0  0
   16.1316   10.2255   11.2435 C   0  0  0  0  0  0  0  0  0  0  0  0
   16.8771   11.2987   10.6926 N   0  0  0  0  0  0  0  0  0  0  0  0
   18.1731   11.7356   11.0917 C   0  0  0  0  0  0  0  0  0  0  0  0
   19.2927   11.1149   10.5262 C   0  0  0  0  0  0  0  0  0  0  0  0
   20.5907   11.5349   10.8072 C   0  0  0  0  0  0  0  0  0  0  0  0
   20.7861   12.6090   11.6616 C   0  0  0  0  0  0  0  0  0  0  0  0
   19.6873   13.2550   12.2454 C   0  0  0  0  0  0  0  0  0  0  0  0
   19.9458   14.4302   13.1411 C   0  0  0  0  0  0  0  0  0  0  0  0
   18.3786   12.8118   11.9589 C   0  0  0  0  0  0  0  0  0  0  0  0
   15.2065    9.5069    8.9250 C   0  0  0  0  0  0  0  0  0  0  0  0
   13.9013    8.7243    8.7563 C   0  0  0  0  0  0  0  0  0  0  0  0
   13.9657    7.5861    9.7681 C   0  0  0  0  0  0  0  0  0  0  0  0
  1  2  1  0
  2  3  1  0
  3  4  2  0
  4  5  1  0
  5  6  2  0
  6  7  1  0
  7  8  2  0
  8  9  1  0
  9 10  1  0
 10 11  2  0
 11 12  1  0
 12 13  2  0
 13 14  1  0
 14 15  1  0
 14 16  2  0
  7 17  1  0
 17 18  1  0
 18 19  1  0
  8  3  1  0
 16 10  1  0
 19  6  1  0
M  END
>  <original ID>  (411) 
WSSBXJHMELFFDR-UHFFFAOYSA-N

>  <generation_date>  (411) 
None

>  <alias>  (411) 
None

>  <original SMILES>  (411) 
COc1ccc2c(c1Nc1cccc(C)c1)CCC2

>  <HIPPO ID>  (411) 
106552

>  <tags>  (411) 
[]

>  <ref_pdb>  (411) 
c0270a

>  <method>  (411) 
None

>  <ref_url>  (411) 
None

>  <inchikey>  (411) 
WSSBXJHMELFFDR-UHFFFAOYSA-N

>  <submitter_email>  (411) 
None

>  <ref_mols>  (411) 
c0692a,c1116a

>  <submitter_name>  (411) 
None

$$$$
NJMYYQZLPQJDEX-UHFFFAOYSA-N
     RDKit          3D

 19 20  0  0  0  0  0  0  0  0999 V2000
   15.1561   11.0844   14.1996 C   0  0  0  0  0  0  0  0  0  0  0  0
   16.2400   10.4503   13.5180 O   0  0  0  0  0  0  0  0  0  0  0  0
   15.7689    9.6900   12.4791 C   0  0  0  0  0  0  0  0  0  0  0  0
   15.0327    8.5239   12.7704 C   0  0  0  0  0  0  0  0  0  0  0  0
   14.4917    7.7633   11.7413 C   0  0  0  0  0  0  0  0  0  0  0  0
   13.3632    6.2834   12.0598 Br  0  0  0  0  0  0  0  0  0  0  0  0
   14.6859    8.1493   10.4363 C   0  0  0  0  0  0  0  0  0  0  0  0
   15.4105    9.3147   10.1516 C   0  0  0  0  0  0  0  0  0  0  0  0
   15.4801    9.6631    8.7147 C   0  0  0  0  0  0  0  0  0  0  0  0
   16.0339   10.0809   11.1600 C   0  0  0  0  0  0  0  0  0  0  0  0
   16.7383   11.2800   10.8127 N   0  0  0  0  0  0  0  0  0  0  0  0
   18.0611   11.6738   11.1944 C   0  0  0  0  0  0  0  0  0  0  0  0
   19.1355   11.0296   10.5616 C   0  0  0  0  0  0  0  0  0  0  0  0
   20.4612   11.4080   10.7787 C   0  0  0  0  0  0  0  0  0  0  0  0
   20.7292   12.4623   11.6309 C   0  0  0  0  0  0  0  0  0  0  0  0
   22.0023   12.8010   11.8632 F   0  0  0  0  0  0  0  0  0  0  0  0
   19.6938   13.1564   12.2471 C   0  0  0  0  0  0  0  0  0  0  0  0
   18.3611   12.7643   12.0328 C   0  0  0  0  0  0  0  0  0  0  0  0
   17.1344   13.6838   12.8232 Cl  0  0  0  0  0  0  0  0  0  0  0  0
  1  2  1  0
  2  3  1  0
  3  4  2  0
  4  5  1  0
  5  6  1  0
  5  7  2  0
  7  8  1  0
  8  9  1  0
  8 10  2  0
 10 11  1  0
 11 12  1  0
 12 13  2  0
 13 14  1  0
 14 15  2  0
 15 16  1  0
 15 17  1  0
 17 18  2  0
 18 19  1  0
 10  3  1  0
 18 12  1  0
M  END
>  <original ID>  (412) 
NJMYYQZLPQJDEX-UHFFFAOYSA-N

>  <generation_date>  (412) 
None

>  <alias>  (412) 
None

>  <original SMILES>  (412) 
COc1cc(Br)cc(C)c1Nc1ccc(F)cc1Cl

>  <HIPPO ID>  (412) 
106561

>  <tags>  (412) 
[]

>  <ref_pdb>  (412) 
c0270a

>  <method>  (412) 
None

>  <ref_url>  (412) 
None

>  <inchikey>  (412) 
NJMYYQZLPQJDEX-UHFFFAOYSA-N

>  <submitter_email>  (412) 
None

>  <ref_mols>  (412) 
c0692a,c1116a

>  <submitter_name>  (412) 
None

$$$$
LKLSQWMLLHKJFF-UHFFFAOYSA-N
     RDKit          3D

 19 20  0  0  0  0  0  0  0  0999 V2000
   15.2055   10.8102   14.4163 C   0  0  0  0  0  0  0  0  0  0  0  0
   16.2375   10.4122   13.5121 O   0  0  0  0  0  0  0  0  0  0  0  0
   15.7499    9.6615   12.4742 C   0  0  0  0  0  0  0  0  0  0  0  0
   15.0068    8.4919   12.7473 C   0  0  0  0  0  0  0  0  0  0  0  0
   14.4626    7.7403   11.7124 C   0  0  0  0  0  0  0  0  0  0  0  0
   13.3341    6.2586   12.0219 Br  0  0  0  0  0  0  0  0  0  0  0  0
   14.6538    8.1377   10.4126 C   0  0  0  0  0  0  0  0  0  0  0  0
   15.3864    9.2999   10.1439 C   0  0  0  0  0  0  0  0  0  0  0  0
   15.4570    9.6697    8.7115 C   0  0  0  0  0  0  0  0  0  0  0  0
   16.0259   10.0524   11.1571 C   0  0  0  0  0  0  0  0  0  0  0  0
   16.7454   11.2278   10.7756 N   0  0  0  0  0  0  0  0  0  0  0  0
   17.9441   11.7991   11.2980 C   0  0  0  0  0  0  0  0  0  0  0  0
   19.1656   11.3179   10.7919 C   0  0  0  0  0  0  0  0  0  0  0  0
   20.3937   11.9013   11.1396 C   0  0  0  0  0  0  0  0  0  0  0  0
   21.6889   11.3316   10.6668 C   0  0  0  0  0  0  0  0  0  0  0  0
   20.4133   12.9975   11.9977 C   0  0  0  0  0  0  0  0  0  0  0  0
   19.2199   13.5031   12.4947 C   0  0  0  0  0  0  0  0  0  0  0  0
   17.9948   12.9063   12.1607 C   0  0  0  0  0  0  0  0  0  0  0  0
   16.4602   13.7420   12.8830 Br  0  0  0  0  0  0  0  0  0  0  0  0
  1  2  1  0
  2  3  1  0
  3  4  2  0
  4  5  1  0
  5  6  1  0
  5  7  2  0
  7  8  1  0
  8  9  1  0
  8 10  2  0
 10 11  1  0
 11 12  1  0
 12 13  2  0
 13 14  1  0
 14 15  1  0
 14 16  2  0
 16 17  1  0
 17 18  2  0
 18 19  1  0
 10  3  1  0
 18 12  1  0
M  END
>  <original ID>  (413) 
LKLSQWMLLHKJFF-UHFFFAOYSA-N

>  <generation_date>  (413) 
None

>  <alias>  (413) 
None

>  <original SMILES>  (413) 
COc1cc(Br)cc(C)c1Nc1cc(C)ccc1Br

>  <HIPPO ID>  (413) 
106585

>  <tags>  (413) 
[]

>  <ref_pdb>  (413) 
c0270a

>  <method>  (413) 
None

>  <ref_url>  (413) 
None

>  <inchikey>  (413) 
LKLSQWMLLHKJFF-UHFFFAOYSA-N

>  <submitter_email>  (413) 
None

>  <ref_mols>  (413) 
c0692a,c1116a

>  <submitter_name>  (413) 
None

$$$$
IHHOHEYPAOVXSN-UHFFFAOYSA-N
     RDKit          3D

 19 21  0  0  0  0  0  0  0  0999 V2000
   15.3395   11.3911   14.3438 C   0  0  0  0  0  0  0  0  0  0  0  0
   16.4409   10.7265   13.7223 O   0  0  0  0  0  0  0  0  0  0  0  0
   15.9626    9.9108   12.7328 C   0  0  0  0  0  0  0  0  0  0  0  0
   15.3943    8.6761   13.1065 C   0  0  0  0  0  0  0  0  0  0  0  0
   14.8004    7.8512   12.1602 C   0  0  0  0  0  0  0  0  0  0  0  0
   14.6965    8.3401   10.8802 C   0  0  0  0  0  0  0  0  0  0  0  0
   15.2358    9.5863   10.5371 C   0  0  0  0  0  0  0  0  0  0  0  0
   16.0295   10.3185   11.4028 C   0  0  0  0  0  0  0  0  0  0  0  0
   16.7029   11.4711   10.9261 N   0  0  0  0  0  0  0  0  0  0  0  0
   18.0496   11.8205   11.2290 C   0  0  0  0  0  0  0  0  0  0  0  0
   19.0916   11.1222   10.6052 C   0  0  0  0  0  0  0  0  0  0  0  0
   20.4261   11.4618   10.8208 C   0  0  0  0  0  0  0  0  0  0  0  0
   20.7282   12.5117   11.6755 C   0  0  0  0  0  0  0  0  0  0  0  0
   22.3743   12.8750   11.9903 Cl  0  0  0  0  0  0  0  0  0  0  0  0
   19.7039   13.2367   12.2905 C   0  0  0  0  0  0  0  0  0  0  0  0
   18.3617   12.8874   12.0721 C   0  0  0  0  0  0  0  0  0  0  0  0
   14.6814   10.0460    9.2361 C   0  0  0  0  0  0  0  0  0  0  0  0
   14.2229    8.7355    8.6493 C   0  0  0  0  0  0  0  0  0  0  0  0
   13.9621    7.7211    9.7466 C   0  0  0  0  0  0  0  0  0  0  0  0
  1  2  1  0
  2  3  1  0
  3  4  2  0
  4  5  1  0
  5  6  2  0
  6  7  1  0
  7  8  2  0
  8  9  1  0
  9 10  1  0
 10 11  2  0
 11 12  1  0
 12 13  2  0
 13 14  1  0
 13 15  1  0
 15 16  2  0
  7 17  1  0
 17 18  1  0
 18 19  1  0
  8  3  1  0
 16 10  1  0
 19  6  1  0
M  END
>  <original ID>  (414) 
IHHOHEYPAOVXSN-UHFFFAOYSA-N

>  <generation_date>  (414) 
None

>  <alias>  (414) 
None

>  <original SMILES>  (414) 
COc1ccc2c(c1Nc1ccc(Cl)cc1)CCC2

>  <HIPPO ID>  (414) 
106595

>  <tags>  (414) 
[]

>  <ref_pdb>  (414) 
c0270a

>  <method>  (414) 
None

>  <ref_url>  (414) 
None

>  <inchikey>  (414) 
IHHOHEYPAOVXSN-UHFFFAOYSA-N

>  <submitter_email>  (414) 
None

>  <ref_mols>  (414) 
c0692a,c1116a

>  <submitter_name>  (414) 
None

$$$$
DQVIBXRPBCDJST-UHFFFAOYSA-N
     RDKit          3D

 19 20  0  0  0  0  0  0  0  0999 V2000
   13.4582    8.7400    8.3634 C   0  0  0  0  0  0  0  0  0  0  0  0
   14.1373    7.8083    9.1855 O   0  0  0  0  0  0  0  0  0  0  0  0
   14.8043    8.4311   10.1966 C   0  0  0  0  0  0  0  0  0  0  0  0
   15.7032    9.4540    9.9203 C   0  0  0  0  0  0  0  0  0  0  0  0
   16.2590   10.2202   10.9398 C   0  0  0  0  0  0  0  0  0  0  0  0
   17.0404   11.3345   10.5692 N   0  0  0  0  0  0  0  0  0  0  0  0
   18.3097   11.7189   11.0575 C   0  0  0  0  0  0  0  0  0  0  0  0
   19.4450   11.1080   10.5199 C   0  0  0  0  0  0  0  0  0  0  0  0
   20.7288   11.5006   10.8799 C   0  0  0  0  0  0  0  0  0  0  0  0
   20.8992   12.5340   11.7958 C   0  0  0  0  0  0  0  0  0  0  0  0
   22.2862   12.9394   12.1876 C   0  0  0  0  0  0  0  0  0  0  0  0
   19.7671   13.1896   12.3062 C   0  0  0  0  0  0  0  0  0  0  0  0
   18.4743   12.7738   11.9515 C   0  0  0  0  0  0  0  0  0  0  0  0
   15.8754    9.9480   12.2486 C   0  0  0  0  0  0  0  0  0  0  0  0
   15.0071    8.8687   12.5557 C   0  0  0  0  0  0  0  0  0  0  0  0
   14.5729    8.7239   13.9893 C   0  0  0  0  0  0  0  0  0  0  0  0
   13.8864    9.8860   14.4506 O   0  0  0  0  0  0  0  0  0  0  0  0
   14.5437    8.0515   11.5103 C   0  0  0  0  0  0  0  0  0  0  0  0
   13.4082    6.2659   11.7996 I   0  0  0  0  0  0  0  0  0  0  0  0
  1  2  1  0
  2  3  1  0
  3  4  2  0
  4  5  1  0
  5  6  1  0
  6  7  1  0
  7  8  2  0
  8  9  1  0
  9 10  2  0
 10 11  1  0
 10 12  1  0
 12 13  2  0
  5 14  2  0
 14 15  1  0
 15 16  1  0
 16 17  1  0
 15 18  2  0
 18 19  1  0
 18  3  1  0
 13  7  1  0
M  END
>  <original ID>  (415) 
DQVIBXRPBCDJST-UHFFFAOYSA-N

>  <generation_date>  (415) 
None

>  <alias>  (415) 
None

>  <original SMILES>  (415) 
COc1cc(Nc2ccc(C)cc2)cc(CO)c1I

>  <HIPPO ID>  (415) 
106603

>  <tags>  (415) 
[]

>  <ref_pdb>  (415) 
c0270a

>  <method>  (415) 
None

>  <ref_url>  (415) 
None

>  <inchikey>  (415) 
DQVIBXRPBCDJST-UHFFFAOYSA-N

>  <submitter_email>  (415) 
None

>  <ref_mols>  (415) 
c0692a,c1116a

>  <submitter_name>  (415) 
None

$$$$
IDQCFJLBMOAPEZ-UHFFFAOYSA-N
     RDKit          3D

 19 20  0  0  0  0  0  0  0  0999 V2000
   13.6965    8.8400    8.4582 C   0  0  0  0  0  0  0  0  0  0  0  0
   14.6665    8.0657    9.1363 O   0  0  0  0  0  0  0  0  0  0  0  0
   15.0420    8.6848   10.2879 C   0  0  0  0  0  0  0  0  0  0  0  0
   15.8012    9.8568   10.2243 C   0  0  0  0  0  0  0  0  0  0  0  0
   16.0648   10.5675   11.3845 C   0  0  0  0  0  0  0  0  0  0  0  0
   16.7472   11.8009   11.3808 N   0  0  0  0  0  0  0  0  0  0  0  0
   18.1476   11.9946   11.3656 C   0  0  0  0  0  0  0  0  0  0  0  0
   19.0111   11.1614   10.6560 C   0  0  0  0  0  0  0  0  0  0  0  0
   20.3952   11.3552   10.7012 C   0  0  0  0  0  0  0  0  0  0  0  0
   20.9229   12.3927   11.4517 C   0  0  0  0  0  0  0  0  0  0  0  0
   22.2770   12.4912   11.5208 O   0  0  0  0  0  0  0  0  0  0  0  0
   20.0855   13.2815   12.1105 C   0  0  0  0  0  0  0  0  0  0  0  0
   18.6999   13.0921   12.0495 C   0  0  0  0  0  0  0  0  0  0  0  0
   15.6117   10.0477   12.6003 C   0  0  0  0  0  0  0  0  0  0  0  0
   14.8634    8.8542   12.6830 C   0  0  0  0  0  0  0  0  0  0  0  0
   14.3382    8.4686   14.0384 C   0  0  0  0  0  0  0  0  0  0  0  0
   13.7448    9.5912   14.6947 O   0  0  0  0  0  0  0  0  0  0  0  0
   14.6245    8.1374   11.5048 C   0  0  0  0  0  0  0  0  0  0  0  0
   13.5618    6.2849   11.4571 I   0  0  0  0  0  0  0  0  0  0  0  0
  1  2  1  0
  2  3  1  0
  3  4  2  0
  4  5  1  0
  5  6  1  0
  6  7  1  0
  7  8  2  0
  8  9  1  0
  9 10  2  0
 10 11  1  0
 10 12  1  0
 12 13  2  0
  5 14  2  0
 14 15  1  0
 15 16  1  0
 16 17  1  0
 15 18  2  0
 18 19  1  0
 18  3  1  0
 13  7  1  0
M  END
>  <original ID>  (416) 
IDQCFJLBMOAPEZ-UHFFFAOYSA-N

>  <generation_date>  (416) 
None

>  <alias>  (416) 
None

>  <original SMILES>  (416) 
COc1cc(Nc2ccc(O)cc2)cc(CO)c1I

>  <HIPPO ID>  (416) 
106608

>  <tags>  (416) 
[]

>  <ref_pdb>  (416) 
c0270a

>  <method>  (416) 
None

>  <ref_url>  (416) 
None

>  <inchikey>  (416) 
IDQCFJLBMOAPEZ-UHFFFAOYSA-N

>  <submitter_email>  (416) 
None

>  <ref_mols>  (416) 
c0692a,c1116a

>  <submitter_name>  (416) 
None

$$$$
PZVJJWFPSWPJAJ-UHFFFAOYSA-N
     RDKit          3D

 19 20  0  0  0  0  0  0  0  0999 V2000
   22.1100   10.8547   10.9604 C   0  0  0  0  0  0  0  0  0  0  0  0
   21.1482   11.6483   10.2937 O   0  0  0  0  0  0  0  0  0  0  0  0
   20.2213   12.1715   11.1335 C   0  0  0  0  0  0  0  0  0  0  0  0
   18.9092   11.7047   10.9568 C   0  0  0  0  0  0  0  0  0  0  0  0
   17.8649   12.2791   11.6678 C   0  0  0  0  0  0  0  0  0  0  0  0
   16.5129   11.9045   11.4902 N   0  0  0  0  0  0  0  0  0  0  0  0
   15.9761   10.6123   11.3008 C   0  0  0  0  0  0  0  0  0  0  0  0
   15.7643   10.0791   10.0310 C   0  0  0  0  0  0  0  0  0  0  0  0
   15.1221    8.8518    9.8674 C   0  0  0  0  0  0  0  0  0  0  0  0
   14.6972    8.1336   10.9801 C   0  0  0  0  0  0  0  0  0  0  0  0
   14.8901    8.6564   12.2629 C   0  0  0  0  0  0  0  0  0  0  0  0
   14.3906    7.9370   13.4770 C   0  0  0  0  0  0  0  0  0  0  0  0
   15.5467    9.8834   12.4132 C   0  0  0  0  0  0  0  0  0  0  0  0
   18.1745   13.3439   12.5362 C   0  0  0  0  0  0  0  0  0  0  0  0
   19.4997   13.7812   12.7741 C   0  0  0  0  0  0  0  0  0  0  0  0
   19.7886   14.8689   13.7759 C   0  0  0  0  0  0  0  0  0  0  0  0
   18.7103   15.0539   14.6917 O   0  0  0  0  0  0  0  0  0  0  0  0
   20.5313   13.1968   12.0370 C   0  0  0  0  0  0  0  0  0  0  0  0
   22.5391   13.8961   12.2650 I   0  0  0  0  0  0  0  0  0  0  0  0
  1  2  1  0
  2  3  1  0
  3  4  2  0
  4  5  1  0
  5  6  1  0
  6  7  1  0
  7  8  2  0
  8  9  1  0
  9 10  2  0
 10 11  1  0
 11 12  1  0
 11 13  2  0
  5 14  2  0
 14 15  1  0
 15 16  1  0
 16 17  1  0
 15 18  2  0
 18 19  1  0
 18  3  1  0
 13  7  1  0
M  END
>  <original ID>  (417) 
PZVJJWFPSWPJAJ-UHFFFAOYSA-N

>  <generation_date>  (417) 
None

>  <alias>  (417) 
None

>  <original SMILES>  (417) 
COc1cc(Nc2cccc(C)c2)cc(CO)c1I

>  <HIPPO ID>  (417) 
106613

>  <tags>  (417) 
[]

>  <ref_pdb>  (417) 
c0270a

>  <method>  (417) 
None

>  <ref_url>  (417) 
None

>  <inchikey>  (417) 
PZVJJWFPSWPJAJ-UHFFFAOYSA-N

>  <submitter_email>  (417) 
None

>  <ref_mols>  (417) 
c0692a,c1116a

>  <submitter_name>  (417) 
None

$$$$
DFSCLNKVSNTNFQ-UHFFFAOYSA-N
     RDKit          3D

 19 20  0  0  0  0  0  0  0  0999 V2000
   15.0358   11.1467   14.1156 C   0  0  0  0  0  0  0  0  0  0  0  0
   16.1183   10.3804   13.5911 O   0  0  0  0  0  0  0  0  0  0  0  0
   15.6772    9.5810   12.5691 C   0  0  0  0  0  0  0  0  0  0  0  0
   14.9497    8.4200   12.8811 C   0  0  0  0  0  0  0  0  0  0  0  0
   14.4371    7.6261   11.8602 C   0  0  0  0  0  0  0  0  0  0  0  0
   13.2453    6.2008   12.1944 Br  0  0  0  0  0  0  0  0  0  0  0  0
   14.6922    7.9437   10.5452 C   0  0  0  0  0  0  0  0  0  0  0  0
   15.4203    9.0985   10.2389 C   0  0  0  0  0  0  0  0  0  0  0  0
   15.5190    9.4374    8.7992 C   0  0  0  0  0  0  0  0  0  0  0  0
   14.8970   10.6929    8.6310 O   0  0  0  0  0  0  0  0  0  0  0  0
   15.9387    9.9440   11.2430 C   0  0  0  0  0  0  0  0  0  0  0  0
   16.5437   11.1943   10.8946 N   0  0  0  0  0  0  0  0  0  0  0  0
   17.8702   11.6042   11.1968 C   0  0  0  0  0  0  0  0  0  0  0  0
   18.9456   10.9909   10.5534 C   0  0  0  0  0  0  0  0  0  0  0  0
   20.2602   11.4129   10.7522 C   0  0  0  0  0  0  0  0  0  0  0  0
   20.5084   12.4828   11.5979 C   0  0  0  0  0  0  0  0  0  0  0  0
   22.2961   12.9713   11.9358 Br  0  0  0  0  0  0  0  0  0  0  0  0
   19.4476   13.1517   12.2119 C   0  0  0  0  0  0  0  0  0  0  0  0
   18.1277   12.7110   12.0108 C   0  0  0  0  0  0  0  0  0  0  0  0
  1  2  1  0
  2  3  1  0
  3  4  2  0
  4  5  1  0
  5  6  1  0
  5  7  2  0
  7  8  1  0
  8  9  1  0
  9 10  1  0
  8 11  2  0
 11 12  1  0
 12 13  1  0
 13 14  2  0
 14 15  1  0
 15 16  2  0
 16 17  1  0
 16 18  1  0
 18 19  2  0
 11  3  1  0
 19 13  1  0
M  END
>  <original ID>  (418) 
DFSCLNKVSNTNFQ-UHFFFAOYSA-N

>  <generation_date>  (418) 
None

>  <alias>  (418) 
None

>  <original SMILES>  (418) 
COc1cc(Br)cc(CO)c1Nc1ccc(Br)cc1

>  <HIPPO ID>  (418) 
106627

>  <tags>  (418) 
[]

>  <ref_pdb>  (418) 
c0270a

>  <method>  (418) 
None

>  <ref_url>  (418) 
None

>  <inchikey>  (418) 
DFSCLNKVSNTNFQ-UHFFFAOYSA-N

>  <submitter_email>  (418) 
None

>  <ref_mols>  (418) 
c0692a,c1116a

>  <submitter_name>  (418) 
None

$$$$
VDTSSLOLGWAYDS-UHFFFAOYSA-N
     RDKit          3D

 19 20  0  0  0  0  0  0  0  0999 V2000
   13.6769    8.8446    8.4449 C   0  0  0  0  0  0  0  0  0  0  0  0
   14.6496    8.0669    9.1143 O   0  0  0  0  0  0  0  0  0  0  0  0
   15.0120    8.6703   10.2773 C   0  0  0  0  0  0  0  0  0  0  0  0
   15.7587    9.8500   10.2366 C   0  0  0  0  0  0  0  0  0  0  0  0
   15.9956   10.5492   11.4089 C   0  0  0  0  0  0  0  0  0  0  0  0
   16.6755   11.7857   11.4273 N   0  0  0  0  0  0  0  0  0  0  0  0
   18.0745   11.9851   11.3923 C   0  0  0  0  0  0  0  0  0  0  0  0
   18.9344   11.1596   10.6671 C   0  0  0  0  0  0  0  0  0  0  0  0
   20.3199   11.3589   10.6940 C   0  0  0  0  0  0  0  0  0  0  0  0
   20.8566   12.3950   11.4456 C   0  0  0  0  0  0  0  0  0  0  0  0
   22.5583   12.5597   11.5685 Cl  0  0  0  0  0  0  0  0  0  0  0  0
   20.0151   13.2772   12.1144 C   0  0  0  0  0  0  0  0  0  0  0  0
   18.6293   13.0844   12.0694 C   0  0  0  0  0  0  0  0  0  0  0  0
   15.5326   10.0077   12.6143 C   0  0  0  0  0  0  0  0  0  0  0  0
   14.8173    8.7933   12.6765 C   0  0  0  0  0  0  0  0  0  0  0  0
   14.3352    8.3168   14.0175 C   0  0  0  0  0  0  0  0  0  0  0  0
   13.9576    9.4204   14.8402 O   0  0  0  0  0  0  0  0  0  0  0  0
   14.5951    8.0976   11.4822 C   0  0  0  0  0  0  0  0  0  0  0  0
   13.5439    6.2390   11.3985 I   0  0  0  0  0  0  0  0  0  0  0  0
  1  2  1  0
  2  3  1  0
  3  4  2  0
  4  5  1  0
  5  6  1  0
  6  7  1  0
  7  8  2  0
  8  9  1  0
  9 10  2  0
 10 11  1  0
 10 12  1  0
 12 13  2  0
  5 14  2  0
 14 15  1  0
 15 16  1  0
 16 17  1  0
 15 18  2  0
 18 19  1  0
 18  3  1  0
 13  7  1  0
M  END
>  <original ID>  (419) 
VDTSSLOLGWAYDS-UHFFFAOYSA-N

>  <generation_date>  (419) 
None

>  <alias>  (419) 
None

>  <original SMILES>  (419) 
COc1cc(Nc2ccc(Cl)cc2)cc(CO)c1I

>  <HIPPO ID>  (419) 
106632

>  <tags>  (419) 
[]

>  <ref_pdb>  (419) 
c0270a

>  <method>  (419) 
None

>  <ref_url>  (419) 
None

>  <inchikey>  (419) 
VDTSSLOLGWAYDS-UHFFFAOYSA-N

>  <submitter_email>  (419) 
None

>  <ref_mols>  (419) 
c0692a,c1116a

>  <submitter_name>  (419) 
None

$$$$
CQUMTHRPQKPTGO-UHFFFAOYSA-N
     RDKit          3D

 19 21  0  0  0  0  0  0  0  0999 V2000
   15.2930   11.4974   14.1724 C   0  0  0  0  0  0  0  0  0  0  0  0
   16.3840   10.8389   13.5260 O   0  0  0  0  0  0  0  0  0  0  0  0
   15.9022    9.9496   12.6012 C   0  0  0  0  0  0  0  0  0  0  0  0
   15.2459    8.7937   13.0752 C   0  0  0  0  0  0  0  0  0  0  0  0
   14.6421    7.9041   12.1983 C   0  0  0  0  0  0  0  0  0  0  0  0
   14.6496    8.2372   10.8661 C   0  0  0  0  0  0  0  0  0  0  0  0
   15.3451    9.3615   10.3946 C   0  0  0  0  0  0  0  0  0  0  0  0
   16.0756   10.1941   11.2341 C   0  0  0  0  0  0  0  0  0  0  0  0
   16.8012   11.2791   10.6813 N   0  0  0  0  0  0  0  0  0  0  0  0
   18.0966   11.7110   11.0766 C   0  0  0  0  0  0  0  0  0  0  0  0
   19.2115   11.0849   10.5091 C   0  0  0  0  0  0  0  0  0  0  0  0
   20.5109   11.4809   10.8106 C   0  0  0  0  0  0  0  0  0  0  0  0
   20.7050   12.5293   11.6951 C   0  0  0  0  0  0  0  0  0  0  0  0
   22.4695   13.0013   12.1512 Br  0  0  0  0  0  0  0  0  0  0  0  0
   19.6104   13.1910   12.2582 C   0  0  0  0  0  0  0  0  0  0  0  0
   18.3033   12.7734   11.9569 C   0  0  0  0  0  0  0  0  0  0  0  0
   15.1574    9.4707    8.9183 C   0  0  0  0  0  0  0  0  0  0  0  0
   13.8605    8.6764    8.7495 C   0  0  0  0  0  0  0  0  0  0  0  0
   13.9339    7.5376    9.7620 C   0  0  0  0  0  0  0  0  0  0  0  0
  1  2  1  0
  2  3  1  0
  3  4  2  0
  4  5  1  0
  5  6  2  0
  6  7  1  0
  7  8  2  0
  8  9  1  0
  9 10  1  0
 10 11  2  0
 11 12  1  0
 12 13  2  0
 13 14  1  0
 13 15  1  0
 15 16  2  0
  7 17  1  0
 17 18  1  0
 18 19  1  0
  8  3  1  0
 16 10  1  0
 19  6  1  0
M  END
>  <original ID>  (420) 
CQUMTHRPQKPTGO-UHFFFAOYSA-N

>  <generation_date>  (420) 
None

>  <alias>  (420) 
None

>  <original SMILES>  (420) 
COc1ccc2c(c1Nc1ccc(Br)cc1)CCC2

>  <HIPPO ID>  (420) 
106656

>  <tags>  (420) 
[]

>  <ref_pdb>  (420) 
c0270a

>  <method>  (420) 
None

>  <ref_url>  (420) 
None

>  <inchikey>  (420) 
CQUMTHRPQKPTGO-UHFFFAOYSA-N

>  <submitter_email>  (420) 
None

>  <ref_mols>  (420) 
c0692a,c1116a

>  <submitter_name>  (420) 
None

$$$$
GOZSPWCVJACXKH-UHFFFAOYSA-N
     RDKit          3D

 19 20  0  0  0  0  0  0  0  0999 V2000
   22.6163   12.4137   12.9214 C   0  0  0  0  0  0  0  0  0  0  0  0
   22.0034   13.0845   11.8184 O   0  0  0  0  0  0  0  0  0  0  0  0
   20.6640   12.8345   11.7794 C   0  0  0  0  0  0  0  0  0  0  0  0
   20.2084   11.8349   10.9524 C   0  0  0  0  0  0  0  0  0  0  0  0
   18.8336   11.5426   10.9116 C   0  0  0  0  0  0  0  0  0  0  0  0
   18.5381   10.4152   10.0624 C   0  0  0  0  0  0  0  0  0  0  0  0
   17.7111    9.5733   10.3472 O   0  0  0  0  0  0  0  0  0  0  0  0
   17.8748   12.2328   11.6602 C   0  0  0  0  0  0  0  0  0  0  0  0
   16.4488   12.0451   11.5908 N   0  0  0  0  0  0  0  0  0  0  0  0
   15.7130   10.8399   11.4023 C   0  0  0  0  0  0  0  0  0  0  0  0
   15.2800   10.4367   10.1253 C   0  0  0  0  0  0  0  0  0  0  0  0
   14.7224    9.1718    9.9060 C   0  0  0  0  0  0  0  0  0  0  0  0
   14.5788    8.2933   10.9734 C   0  0  0  0  0  0  0  0  0  0  0  0
   14.9507    8.6973   12.2579 C   0  0  0  0  0  0  0  0  0  0  0  0
   15.5038    9.9657   12.4739 C   0  0  0  0  0  0  0  0  0  0  0  0
   18.3765   13.3075   12.4383 C   0  0  0  0  0  0  0  0  0  0  0  0
   17.4253   13.9807   13.1711 O   0  0  0  0  0  0  0  0  0  0  0  0
   17.8255   15.2253   13.7327 C   0  0  0  0  0  0  0  0  0  0  0  0
   19.7562   13.5968   12.5012 C   0  0  0  0  0  0  0  0  0  0  0  0
  1  2  1  0
  2  3  1  0
  3  4  2  0
  4  5  1  0
  5  6  1  0
  6  7  2  0
  5  8  2  0
  8  9  1  0
  9 10  1  0
 10 11  2  0
 11 12  1  0
 12 13  2  0
 13 14  1  0
 14 15  2  0
  8 16  1  0
 16 17  1  0
 17 18  1  0
 16 19  2  0
 19  3  1  0
 15 10  1  0
M  END
>  <original ID>  (421) 
GOZSPWCVJACXKH-UHFFFAOYSA-N

>  <generation_date>  (421) 
None

>  <alias>  (421) 
None

>  <original SMILES>  (421) 
COc1cc(C=O)c(Nc2ccccc2)c(OC)c1

>  <HIPPO ID>  (421) 
106658

>  <tags>  (421) 
[]

>  <ref_pdb>  (421) 
c0270a

>  <method>  (421) 
None

>  <ref_url>  (421) 
None

>  <inchikey>  (421) 
GOZSPWCVJACXKH-UHFFFAOYSA-N

>  <submitter_email>  (421) 
None

>  <ref_mols>  (421) 
c0692a,c1116a

>  <submitter_name>  (421) 
None

$$$$
LGSCGUMTMYQUPS-UHFFFAOYSA-N
     RDKit          3D

 19 20  0  0  0  0  0  0  0  0999 V2000
   15.1581   11.3980   14.1122 C   0  0  0  0  0  0  0  0  0  0  0  0
   16.2653   10.7417   13.4936 O   0  0  0  0  0  0  0  0  0  0  0  0
   15.8206    9.8578   12.5468 C   0  0  0  0  0  0  0  0  0  0  0  0
   15.1548    8.7005   12.9810 C   0  0  0  0  0  0  0  0  0  0  0  0
   14.6386    7.7920   12.0669 C   0  0  0  0  0  0  0  0  0  0  0  0
   14.7409    8.0711   10.7183 C   0  0  0  0  0  0  0  0  0  0  0  0
   15.4073    9.2335   10.2862 C   0  0  0  0  0  0  0  0  0  0  0  0
   15.4307    9.5061    8.8255 C   0  0  0  0  0  0  0  0  0  0  0  0
   14.4826    8.8068    8.1581 F   0  0  0  0  0  0  0  0  0  0  0  0
   15.1919   10.8073    8.5233 F   0  0  0  0  0  0  0  0  0  0  0  0
   16.6210    9.1877    8.2887 F   0  0  0  0  0  0  0  0  0  0  0  0
   16.0559   10.0994   11.1887 C   0  0  0  0  0  0  0  0  0  0  0  0
   16.7909   11.2135   10.6924 N   0  0  0  0  0  0  0  0  0  0  0  0
   18.0352   11.7213   11.1544 C   0  0  0  0  0  0  0  0  0  0  0  0
   19.2225   11.2061   10.6160 C   0  0  0  0  0  0  0  0  0  0  0  0
   20.4659   11.7457   10.9436 C   0  0  0  0  0  0  0  0  0  0  0  0
   20.5318   12.8268   11.8139 C   0  0  0  0  0  0  0  0  0  0  0  0
   19.3574   13.3569   12.3535 C   0  0  0  0  0  0  0  0  0  0  0  0
   18.1119   12.8009   12.0334 C   0  0  0  0  0  0  0  0  0  0  0  0
  1  2  1  0
  2  3  1  0
  3  4  2  0
  4  5  1  0
  5  6  2  0
  6  7  1  0
  7  8  1  0
  8  9  1  0
  8 10  1  0
  8 11  1  0
  7 12  2  0
 12 13  1  0
 13 14  1  0
 14 15  2  0
 15 16  1  0
 16 17  2  0
 17 18  1  0
 18 19  2  0
 12  3  1  0
 19 14  1  0
M  END
>  <original ID>  (422) 
LGSCGUMTMYQUPS-UHFFFAOYSA-N

>  <generation_date>  (422) 
None

>  <alias>  (422) 
None

>  <original SMILES>  (422) 
COc1cccc(C(F)(F)F)c1Nc1ccccc1

>  <HIPPO ID>  (422) 
106659

>  <tags>  (422) 
[]

>  <ref_pdb>  (422) 
c0270a

>  <method>  (422) 
None

>  <ref_url>  (422) 
None

>  <inchikey>  (422) 
LGSCGUMTMYQUPS-UHFFFAOYSA-N

>  <submitter_email>  (422) 
None

>  <ref_mols>  (422) 
c0692a,c1116a

>  <submitter_name>  (422) 
None

$$$$
VZFSHJDWEFSEBD-UHFFFAOYSA-N
     RDKit          3D

 19 20  0  0  0  0  0  0  0  0999 V2000
   15.2839   10.7420   14.5586 C   0  0  0  0  0  0  0  0  0  0  0  0
   16.2335   10.5003   13.5232 O   0  0  0  0  0  0  0  0  0  0  0  0
   15.7511    9.7173   12.5081 C   0  0  0  0  0  0  0  0  0  0  0  0
   15.0119    8.5457   12.7804 C   0  0  0  0  0  0  0  0  0  0  0  0
   14.4880    7.7807   11.7432 C   0  0  0  0  0  0  0  0  0  0  0  0
   13.3674    6.2912   12.0499 Br  0  0  0  0  0  0  0  0  0  0  0  0
   14.6922    8.1677   10.4419 C   0  0  0  0  0  0  0  0  0  0  0  0
   15.4153    9.3352   10.1707 C   0  0  0  0  0  0  0  0  0  0  0  0
   15.4945    9.6890    8.7335 C   0  0  0  0  0  0  0  0  0  0  0  0
   16.0343   10.0993   11.1889 C   0  0  0  0  0  0  0  0  0  0  0  0
   16.7313   11.3030   10.8254 N   0  0  0  0  0  0  0  0  0  0  0  0
   17.9963   11.8037   11.2953 C   0  0  0  0  0  0  0  0  0  0  0  0
   19.1600   11.2766   10.7143 C   0  0  0  0  0  0  0  0  0  0  0  0
   19.0101   10.3251    9.7954 F   0  0  0  0  0  0  0  0  0  0  0  0
   20.4410   11.7508   10.9730 C   0  0  0  0  0  0  0  0  0  0  0  0
   20.5893   12.8173   11.8420 C   0  0  0  0  0  0  0  0  0  0  0  0
   19.4545   13.3843   12.4308 C   0  0  0  0  0  0  0  0  0  0  0  0
   18.1590   12.8847   12.1738 C   0  0  0  0  0  0  0  0  0  0  0  0
   16.7980   13.7283   12.9524 S   0  0  0  0  0  0  0  0  0  0  0  0
  1  2  1  0
  2  3  1  0
  3  4  2  0
  4  5  1  0
  5  6  1  0
  5  7  2  0
  7  8  1  0
  8  9  1  0
  8 10  2  0
 10 11  1  0
 11 12  1  0
 12 13  2  0
 13 14  1  0
 13 15  1  0
 15 16  2  0
 16 17  1  0
 17 18  2  0
 18 19  1  0
 10  3  1  0
 18 12  1  0
M  END
>  <original ID>  (423) 
VZFSHJDWEFSEBD-UHFFFAOYSA-N

>  <generation_date>  (423) 
None

>  <alias>  (423) 
None

>  <original SMILES>  (423) 
COc1cc(Br)cc(C)c1Nc1c(F)cccc1S

>  <HIPPO ID>  (423) 
106701

>  <tags>  (423) 
[]

>  <ref_pdb>  (423) 
c0270a

>  <method>  (423) 
None

>  <ref_url>  (423) 
None

>  <inchikey>  (423) 
VZFSHJDWEFSEBD-UHFFFAOYSA-N

>  <submitter_email>  (423) 
None

>  <ref_mols>  (423) 
c0692a,c1116a

>  <submitter_name>  (423) 
None

$$$$
BUIGOTHWUUORSQ-UHFFFAOYSA-N
     RDKit          3D

 19 20  0  0  0  0  0  0  0  0999 V2000
   15.1628   11.1981   14.1080 C   0  0  0  0  0  0  0  0  0  0  0  0
   16.2445   10.5447   13.4411 O   0  0  0  0  0  0  0  0  0  0  0  0
   15.7730    9.7402   12.4367 C   0  0  0  0  0  0  0  0  0  0  0  0
   15.0218    8.5957   12.7767 C   0  0  0  0  0  0  0  0  0  0  0  0
   14.4783    7.7905   11.7812 C   0  0  0  0  0  0  0  0  0  0  0  0
   13.3584    6.3188   12.1635 Br  0  0  0  0  0  0  0  0  0  0  0  0
   14.6580    8.1271   10.4611 C   0  0  0  0  0  0  0  0  0  0  0  0
   15.3955    9.2695   10.1336 C   0  0  0  0  0  0  0  0  0  0  0  0
   15.4456    9.5994    8.6915 C   0  0  0  0  0  0  0  0  0  0  0  0
   16.0593   10.0518   11.1034 C   0  0  0  0  0  0  0  0  0  0  0  0
   16.8343   11.1627   10.6560 N   0  0  0  0  0  0  0  0  0  0  0  0
   18.0303   11.7183   11.1806 C   0  0  0  0  0  0  0  0  0  0  0  0
   19.2595   11.2696   10.6811 C   0  0  0  0  0  0  0  0  0  0  0  0
   20.4533   11.8500   11.0986 C   0  0  0  0  0  0  0  0  0  0  0  0
   21.6123   11.3807   10.6400 F   0  0  0  0  0  0  0  0  0  0  0  0
   20.4664   12.8963   11.9961 C   0  0  0  0  0  0  0  0  0  0  0  0
   19.2549   13.3446   12.4897 C   0  0  0  0  0  0  0  0  0  0  0  0
   19.2725   14.3325   13.3908 F   0  0  0  0  0  0  0  0  0  0  0  0
   18.0367   12.7666   12.1031 C   0  0  0  0  0  0  0  0  0  0  0  0
  1  2  1  0
  2  3  1  0
  3  4  2  0
  4  5  1  0
  5  6  1  0
  5  7  2  0
  7  8  1  0
  8  9  1  0
  8 10  2  0
 10 11  1  0
 11 12  1  0
 12 13  2  0
 13 14  1  0
 14 15  1  0
 14 16  2  0
 16 17  1  0
 17 18  1  0
 17 19  2  0
 10  3  1  0
 19 12  1  0
M  END
>  <original ID>  (424) 
BUIGOTHWUUORSQ-UHFFFAOYSA-N

>  <generation_date>  (424) 
None

>  <alias>  (424) 
None

>  <original SMILES>  (424) 
COc1cc(Br)cc(C)c1Nc1cc(F)cc(F)c1

>  <HIPPO ID>  (424) 
106705

>  <tags>  (424) 
[]

>  <ref_pdb>  (424) 
c0270a

>  <method>  (424) 
None

>  <ref_url>  (424) 
None

>  <inchikey>  (424) 
BUIGOTHWUUORSQ-UHFFFAOYSA-N

>  <submitter_email>  (424) 
None

>  <ref_mols>  (424) 
c0692a,c1116a

>  <submitter_name>  (424) 
None

$$$$
WBTNDPCBISTBDL-UHFFFAOYSA-N
     RDKit          3D

 19 20  0  0  0  0  0  0  0  0999 V2000
   14.8369   10.8175   14.4097 C   0  0  0  0  0  0  0  0  0  0  0  0
   15.9608   10.2695   13.7239 O   0  0  0  0  0  0  0  0  0  0  0  0
   15.5590    9.5829   12.6056 C   0  0  0  0  0  0  0  0  0  0  0  0
   14.8879    8.3590   12.7236 C   0  0  0  0  0  0  0  0  0  0  0  0
   14.4560    7.7026   11.5755 C   0  0  0  0  0  0  0  0  0  0  0  0
   13.3429    6.1793   11.6616 Br  0  0  0  0  0  0  0  0  0  0  0  0
   14.7416    8.2268   10.3313 C   0  0  0  0  0  0  0  0  0  0  0  0
   15.4190    9.4493   10.2232 C   0  0  0  0  0  0  0  0  0  0  0  0
   15.5848    9.9627    8.8483 C   0  0  0  0  0  0  0  0  0  0  0  0
   15.8477   10.1512   11.3569 C   0  0  0  0  0  0  0  0  0  0  0  0
   16.4546   11.4421   11.2898 N   0  0  0  0  0  0  0  0  0  0  0  0
   17.8524   11.7418   11.3517 C   0  0  0  0  0  0  0  0  0  0  0  0
   18.7782   11.0170   10.6008 C   0  0  0  0  0  0  0  0  0  0  0  0
   20.1457   11.3349   10.6158 C   0  0  0  0  0  0  0  0  0  0  0  0
   20.6127   12.4005   11.3755 C   0  0  0  0  0  0  0  0  0  0  0  0
   19.7060   13.1544   12.1067 C   0  0  0  0  0  0  0  0  0  0  0  0
   20.1758   14.1585   12.8624 F   0  0  0  0  0  0  0  0  0  0  0  0
   18.3371   12.8514   12.0828 C   0  0  0  0  0  0  0  0  0  0  0  0
   17.2494   13.8176   13.0212 Cl  0  0  0  0  0  0  0  0  0  0  0  0
  1  2  1  0
  2  3  1  0
  3  4  2  0
  4  5  1  0
  5  6  1  0
  5  7  2  0
  7  8  1  0
  8  9  1  0
  8 10  2  0
 10 11  1  0
 11 12  1  0
 12 13  2  0
 13 14  1  0
 14 15  2  0
 15 16  1  0
 16 17  1  0
 16 18  2  0
 18 19  1  0
 10  3  1  0
 18 12  1  0
M  END
>  <original ID>  (425) 
WBTNDPCBISTBDL-UHFFFAOYSA-N

>  <generation_date>  (425) 
None

>  <alias>  (425) 
None

>  <original SMILES>  (425) 
COc1cc(Br)cc(C)c1Nc1cccc(F)c1Cl

>  <HIPPO ID>  (425) 
106770

>  <tags>  (425) 
[]

>  <ref_pdb>  (425) 
c0270a

>  <method>  (425) 
None

>  <ref_url>  (425) 
None

>  <inchikey>  (425) 
WBTNDPCBISTBDL-UHFFFAOYSA-N

>  <submitter_email>  (425) 
None

>  <ref_mols>  (425) 
c0692a,c1116a

>  <submitter_name>  (425) 
None

$$$$
XKGRSBKUFCKNEW-UHFFFAOYSA-N
     RDKit          3D

 19 20  0  0  0  0  0  0  0  0999 V2000
   15.2330   11.3019   14.0238 C   0  0  0  0  0  0  0  0  0  0  0  0
   16.2874   10.4970   13.4939 O   0  0  0  0  0  0  0  0  0  0  0  0
   15.8081    9.7289   12.4653 C   0  0  0  0  0  0  0  0  0  0  0  0
   15.0585    8.5799   12.7871 C   0  0  0  0  0  0  0  0  0  0  0  0
   14.5099    7.7994   11.7767 C   0  0  0  0  0  0  0  0  0  0  0  0
   13.3844    6.3244   12.1288 Br  0  0  0  0  0  0  0  0  0  0  0  0
   14.6961    8.1595   10.4627 C   0  0  0  0  0  0  0  0  0  0  0  0
   15.4291    9.3124   10.1517 C   0  0  0  0  0  0  0  0  0  0  0  0
   15.4832    9.6456    8.7104 C   0  0  0  0  0  0  0  0  0  0  0  0
   16.0765   10.0861   11.1388 C   0  0  0  0  0  0  0  0  0  0  0  0
   16.8100   11.2523   10.7530 N   0  0  0  0  0  0  0  0  0  0  0  0
   18.1090   11.6772   11.1734 C   0  0  0  0  0  0  0  0  0  0  0  0
   19.2272   11.0895   10.5598 C   0  0  0  0  0  0  0  0  0  0  0  0
   20.5331   11.5233   10.8117 C   0  0  0  0  0  0  0  0  0  0  0  0
   20.7448   12.5816   11.6832 C   0  0  0  0  0  0  0  0  0  0  0  0
   19.6511   13.1866   12.2941 C   0  0  0  0  0  0  0  0  0  0  0  0
   19.8776   14.2022   13.1387 F   0  0  0  0  0  0  0  0  0  0  0  0
   18.3430   12.7441   12.0513 C   0  0  0  0  0  0  0  0  0  0  0  0
   17.3261   13.3736   12.6591 F   0  0  0  0  0  0  0  0  0  0  0  0
  1  2  1  0
  2  3  1  0
  3  4  2  0
  4  5  1  0
  5  6  1  0
  5  7  2  0
  7  8  1  0
  8  9  1  0
  8 10  2  0
 10 11  1  0
 11 12  1  0
 12 13  2  0
 13 14  1  0
 14 15  2  0
 15 16  1  0
 16 17  1  0
 16 18  2  0
 18 19  1  0
 10  3  1  0
 18 12  1  0
M  END
>  <original ID>  (426) 
XKGRSBKUFCKNEW-UHFFFAOYSA-N

>  <generation_date>  (426) 
None

>  <alias>  (426) 
None

>  <original SMILES>  (426) 
COc1cc(Br)cc(C)c1Nc1cccc(F)c1F

>  <HIPPO ID>  (426) 
106774

>  <tags>  (426) 
[]

>  <ref_pdb>  (426) 
c0270a

>  <method>  (426) 
None

>  <ref_url>  (426) 
None

>  <inchikey>  (426) 
XKGRSBKUFCKNEW-UHFFFAOYSA-N

>  <submitter_email>  (426) 
None

>  <ref_mols>  (426) 
c0692a,c1116a

>  <submitter_name>  (426) 
None

$$$$
QLNQPKZCPUHQMS-UHFFFAOYSA-N
     RDKit          3D

 20 22  0  0  0  0  0  0  0  0999 V2000
   15.3632   11.3501   14.3709 C   0  0  0  0  0  0  0  0  0  0  0  0
   16.4387   10.8029   13.6020 O   0  0  0  0  0  0  0  0  0  0  0  0
   15.9513    9.9487   12.6489 C   0  0  0  0  0  0  0  0  0  0  0  0
   15.2870    8.7804   13.0867 C   0  0  0  0  0  0  0  0  0  0  0  0
   14.6774    7.9219   12.1877 C   0  0  0  0  0  0  0  0  0  0  0  0
   14.6971    8.2910   10.8670 C   0  0  0  0  0  0  0  0  0  0  0  0
   15.4075    9.4211   10.4233 C   0  0  0  0  0  0  0  0  0  0  0  0
   16.1357   10.2345   11.2895 C   0  0  0  0  0  0  0  0  0  0  0  0
   16.8639   11.3432   10.7744 N   0  0  0  0  0  0  0  0  0  0  0  0
   18.1750   11.7744   11.1605 C   0  0  0  0  0  0  0  0  0  0  0  0
   19.2666   11.1194   10.5617 C   0  0  0  0  0  0  0  0  0  0  0  0
   20.5914   11.4896   10.8083 C   0  0  0  0  0  0  0  0  0  0  0  0
   20.8538   12.5422   11.6700 C   0  0  0  0  0  0  0  0  0  0  0  0
   19.7920   13.2136   12.2686 C   0  0  0  0  0  0  0  0  0  0  0  0
   20.0864   14.2254   13.0993 F   0  0  0  0  0  0  0  0  0  0  0  0
   18.4558   12.8485   12.0239 C   0  0  0  0  0  0  0  0  0  0  0  0
   17.2118   13.7908   12.7620 Cl  0  0  0  0  0  0  0  0  0  0  0  0
   15.2306    9.5468    8.9449 C   0  0  0  0  0  0  0  0  0  0  0  0
   13.9258    8.7669    8.7566 C   0  0  0  0  0  0  0  0  0  0  0  0
   13.9808    7.6149    9.7501 C   0  0  0  0  0  0  0  0  0  0  0  0
  1  2  1  0
  2  3  1  0
  3  4  2  0
  4  5  1  0
  5  6  2  0
  6  7  1  0
  7  8  2  0
  8  9  1  0
  9 10  1  0
 10 11  2  0
 11 12  1  0
 12 13  2  0
 13 14  1  0
 14 15  1  0
 14 16  2  0
 16 17  1  0
  7 18  1  0
 18 19  1  0
 19 20  1  0
  8  3  1  0
 16 10  1  0
 20  6  1  0
M  END
>  <original ID>  (427) 
QLNQPKZCPUHQMS-UHFFFAOYSA-N

>  <generation_date>  (427) 
None

>  <alias>  (427) 
None

>  <original SMILES>  (427) 
COc1ccc2c(c1Nc1cccc(F)c1Cl)CCC2

>  <HIPPO ID>  (427) 
106883

>  <tags>  (427) 
[]

>  <ref_pdb>  (427) 
c0270a

>  <method>  (427) 
None

>  <ref_url>  (427) 
None

>  <inchikey>  (427) 
QLNQPKZCPUHQMS-UHFFFAOYSA-N

>  <submitter_email>  (427) 
None

>  <ref_mols>  (427) 
c0692a,c1116a

>  <submitter_name>  (427) 
None

$$$$
VMDIIKLMIQDHGB-UHFFFAOYSA-N
     RDKit          3D

 20 22  0  0  0  0  0  0  0  0999 V2000
   15.3265   11.4652   14.2485 C   0  0  0  0  0  0  0  0  0  0  0  0
   16.4047   10.8684   13.5240 O   0  0  0  0  0  0  0  0  0  0  0  0
   15.9214    9.9771   12.6029 C   0  0  0  0  0  0  0  0  0  0  0  0
   15.2434    8.8327   13.0802 C   0  0  0  0  0  0  0  0  0  0  0  0
   14.6438    7.9370   12.2080 C   0  0  0  0  0  0  0  0  0  0  0  0
   14.6688    8.2569   10.8743 C   0  0  0  0  0  0  0  0  0  0  0  0
   15.3840    9.3684   10.3999 C   0  0  0  0  0  0  0  0  0  0  0  0
   16.1265   10.1970   11.2356 C   0  0  0  0  0  0  0  0  0  0  0  0
   16.9002   11.2341   10.6585 N   0  0  0  0  0  0  0  0  0  0  0  0
   18.1101   11.7981   11.1415 C   0  0  0  0  0  0  0  0  0  0  0  0
   19.3275   11.3067   10.6583 C   0  0  0  0  0  0  0  0  0  0  0  0
   20.5339   11.8487   11.0904 C   0  0  0  0  0  0  0  0  0  0  0  0
   21.6815   11.3363   10.6504 F   0  0  0  0  0  0  0  0  0  0  0  0
   20.5724   12.8938   11.9893 C   0  0  0  0  0  0  0  0  0  0  0  0
   19.3721   13.3831   12.4686 C   0  0  0  0  0  0  0  0  0  0  0  0
   19.4088   14.3652   13.3755 F   0  0  0  0  0  0  0  0  0  0  0  0
   18.1424   12.8481   12.0627 C   0  0  0  0  0  0  0  0  0  0  0  0
   15.1998    9.4729    8.9221 C   0  0  0  0  0  0  0  0  0  0  0  0
   13.8975    8.6853    8.7545 C   0  0  0  0  0  0  0  0  0  0  0  0
   13.9570    7.5527    9.7711 C   0  0  0  0  0  0  0  0  0  0  0  0
  1  2  1  0
  2  3  1  0
  3  4  2  0
  4  5  1  0
  5  6  2  0
  6  7  1  0
  7  8  2  0
  8  9  1  0
  9 10  1  0
 10 11  2  0
 11 12  1  0
 12 13  1  0
 12 14  2  0
 14 15  1  0
 15 16  1  0
 15 17  2  0
  7 18  1  0
 18 19  1  0
 19 20  1  0
  8  3  1  0
 17 10  1  0
 20  6  1  0
M  END
>  <original ID>  (428) 
VMDIIKLMIQDHGB-UHFFFAOYSA-N

>  <generation_date>  (428) 
None

>  <alias>  (428) 
None

>  <original SMILES>  (428) 
COc1ccc2c(c1Nc1cc(F)cc(F)c1)CCC2

>  <HIPPO ID>  (428) 
106893

>  <tags>  (428) 
[]

>  <ref_pdb>  (428) 
c0270a

>  <method>  (428) 
None

>  <ref_url>  (428) 
None

>  <inchikey>  (428) 
VMDIIKLMIQDHGB-UHFFFAOYSA-N

>  <submitter_email>  (428) 
None

>  <ref_mols>  (428) 
c0692a,c1116a

>  <submitter_name>  (428) 
None

$$$$
HAIZJARXOSGYBB-UHFFFAOYSA-N
     RDKit          3D

 20 22  0  0  0  0  0  0  0  0999 V2000
   15.0217   11.1815   14.6955 C   0  0  0  0  0  0  0  0  0  0  0  0
   16.1378   10.8315   13.8768 O   0  0  0  0  0  0  0  0  0  0  0  0
   15.7503    9.9612   12.8861 C   0  0  0  0  0  0  0  0  0  0  0  0
   15.1929    8.7146   13.2211 C   0  0  0  0  0  0  0  0  0  0  0  0
   14.6847    7.8862   12.2340 C   0  0  0  0  0  0  0  0  0  0  0  0
   14.7448    8.3399   10.9363 C   0  0  0  0  0  0  0  0  0  0  0  0
   15.3947    9.5387   10.5851 C   0  0  0  0  0  0  0  0  0  0  0  0
   15.9216   10.3752   11.5543 C   0  0  0  0  0  0  0  0  0  0  0  0
   16.4812   11.6460   11.2629 N   0  0  0  0  0  0  0  0  0  0  0  0
   17.8740   11.9619   11.3977 C   0  0  0  0  0  0  0  0  0  0  0  0
   18.8410   11.2090   10.7292 C   0  0  0  0  0  0  0  0  0  0  0  0
   18.4496   10.1580   10.0108 F   0  0  0  0  0  0  0  0  0  0  0  0
   20.2006   11.5196   10.7668 C   0  0  0  0  0  0  0  0  0  0  0  0
   20.6303   12.6237   11.4888 C   0  0  0  0  0  0  0  0  0  0  0  0
   19.6933   13.4051   12.1651 C   0  0  0  0  0  0  0  0  0  0  0  0
   18.3238   13.0861   12.1208 C   0  0  0  0  0  0  0  0  0  0  0  0
   17.1988   14.1223   13.0476 S   0  0  0  0  0  0  0  0  0  0  0  0
   15.3301    9.7062    9.1027 C   0  0  0  0  0  0  0  0  0  0  0  0
   14.0629    8.8940    8.8125 C   0  0  0  0  0  0  0  0  0  0  0  0
   14.1008    7.7000    9.7560 C   0  0  0  0  0  0  0  0  0  0  0  0
  1  2  1  0
  2  3  1  0
  3  4  2  0
  4  5  1  0
  5  6  2  0
  6  7  1  0
  7  8  2  0
  8  9  1  0
  9 10  1  0
 10 11  2  0
 11 12  1  0
 11 13  1  0
 13 14  2  0
 14 15  1  0
 15 16  2  0
 16 17  1  0
  7 18  1  0
 18 19  1  0
 19 20  1  0
  8  3  1  0
 16 10  1  0
 20  6  1  0
M  END
>  <original ID>  (429) 
HAIZJARXOSGYBB-UHFFFAOYSA-N

>  <generation_date>  (429) 
None

>  <alias>  (429) 
None

>  <original SMILES>  (429) 
COc1ccc2c(c1Nc1c(F)cccc1S)CCC2

>  <HIPPO ID>  (429) 
106897

>  <tags>  (429) 
[]

>  <ref_pdb>  (429) 
c0270a

>  <method>  (429) 
None

>  <ref_url>  (429) 
None

>  <inchikey>  (429) 
HAIZJARXOSGYBB-UHFFFAOYSA-N

>  <submitter_email>  (429) 
None

>  <ref_mols>  (429) 
c0692a,c1116a

>  <submitter_name>  (429) 
None

$$$$
DKLQRSPAENUGFM-UHFFFAOYSA-N
     RDKit          3D

 20 22  0  0  0  0  0  0  0  0999 V2000
   15.3938   11.5759   14.1560 C   0  0  0  0  0  0  0  0  0  0  0  0
   16.4721   10.8613   13.5475 O   0  0  0  0  0  0  0  0  0  0  0  0
   15.9727    9.9935   12.6137 C   0  0  0  0  0  0  0  0  0  0  0  0
   15.2873    8.8524   13.0852 C   0  0  0  0  0  0  0  0  0  0  0  0
   14.6738    7.9732   12.2069 C   0  0  0  0  0  0  0  0  0  0  0  0
   14.6979    8.3055   10.8753 C   0  0  0  0  0  0  0  0  0  0  0  0
   15.4172    9.4184   10.4062 C   0  0  0  0  0  0  0  0  0  0  0  0
   16.1632   10.2375   11.2491 C   0  0  0  0  0  0  0  0  0  0  0  0
   16.9228   11.3030   10.7006 N   0  0  0  0  0  0  0  0  0  0  0  0
   18.2119   11.7562   11.1161 C   0  0  0  0  0  0  0  0  0  0  0  0
   19.3397   11.1494   10.5380 C   0  0  0  0  0  0  0  0  0  0  0  0
   20.6428   11.5614   10.8326 C   0  0  0  0  0  0  0  0  0  0  0  0
   20.8422   12.6098   11.7188 C   0  0  0  0  0  0  0  0  0  0  0  0
   19.7396   13.2269   12.3011 C   0  0  0  0  0  0  0  0  0  0  0  0
   19.9540   14.2330   13.1598 F   0  0  0  0  0  0  0  0  0  0  0  0
   18.4342   12.8080   12.0140 C   0  0  0  0  0  0  0  0  0  0  0  0
   17.4086   13.4524   12.5917 F   0  0  0  0  0  0  0  0  0  0  0  0
   15.2310    9.5260    8.9284 C   0  0  0  0  0  0  0  0  0  0  0  0
   13.9218    8.7499    8.7588 C   0  0  0  0  0  0  0  0  0  0  0  0
   13.9803    7.6113    9.7691 C   0  0  0  0  0  0  0  0  0  0  0  0
  1  2  1  0
  2  3  1  0
  3  4  2  0
  4  5  1  0
  5  6  2  0
  6  7  1  0
  7  8  2  0
  8  9  1  0
  9 10  1  0
 10 11  2  0
 11 12  1  0
 12 13  2  0
 13 14  1  0
 14 15  1  0
 14 16  2  0
 16 17  1  0
  7 18  1  0
 18 19  1  0
 19 20  1  0
  8  3  1  0
 16 10  1  0
 20  6  1  0
M  END
>  <original ID>  (430) 
DKLQRSPAENUGFM-UHFFFAOYSA-N

>  <generation_date>  (430) 
None

>  <alias>  (430) 
None

>  <original SMILES>  (430) 
COc1ccc2c(c1Nc1cccc(F)c1F)CCC2

>  <HIPPO ID>  (430) 
106915

>  <tags>  (430) 
[]

>  <ref_pdb>  (430) 
c0270a

>  <method>  (430) 
None

>  <ref_url>  (430) 
None

>  <inchikey>  (430) 
DKLQRSPAENUGFM-UHFFFAOYSA-N

>  <submitter_email>  (430) 
None

>  <ref_mols>  (430) 
c0692a,c1116a

>  <submitter_name>  (430) 
None

$$$$
CGFWGZMMQCLVQG-UHFFFAOYSA-N
     RDKit          3D

 20 21  0  0  0  0  0  0  0  0999 V2000
   15.1483   11.2862   14.0549 C   0  0  0  0  0  0  0  0  0  0  0  0
   16.2076   10.4489   13.5919 O   0  0  0  0  0  0  0  0  0  0  0  0
   15.7584    9.6504   12.5736 C   0  0  0  0  0  0  0  0  0  0  0  0
   15.0107    8.5048   12.9028 C   0  0  0  0  0  0  0  0  0  0  0  0
   14.4914    7.6993   11.8959 C   0  0  0  0  0  0  0  0  0  0  0  0
   13.3061    6.2725   12.2486 Br  0  0  0  0  0  0  0  0  0  0  0  0
   14.7450    8.0014   10.5779 C   0  0  0  0  0  0  0  0  0  0  0  0
   15.4905    9.1430   10.2547 C   0  0  0  0  0  0  0  0  0  0  0  0
   15.5683    9.4595    8.8086 C   0  0  0  0  0  0  0  0  0  0  0  0
   14.9247   10.7014    8.6279 O   0  0  0  0  0  0  0  0  0  0  0  0
   16.0369    9.9909   11.2445 C   0  0  0  0  0  0  0  0  0  0  0  0
   16.6841   11.2154   10.8767 N   0  0  0  0  0  0  0  0  0  0  0  0
   18.0077   11.6394   11.2079 C   0  0  0  0  0  0  0  0  0  0  0  0
   19.0923   11.0434   10.5512 C   0  0  0  0  0  0  0  0  0  0  0  0
   20.4113   11.4737   10.7444 C   0  0  0  0  0  0  0  0  0  0  0  0
   20.6692   12.5401   11.5939 C   0  0  0  0  0  0  0  0  0  0  0  0
   19.6065   13.1610   12.2402 C   0  0  0  0  0  0  0  0  0  0  0  0
   19.8728   14.1805   13.0686 F   0  0  0  0  0  0  0  0  0  0  0  0
   18.2873   12.7243   12.0530 C   0  0  0  0  0  0  0  0  0  0  0  0
   17.2999   13.3652   12.6971 F   0  0  0  0  0  0  0  0  0  0  0  0
  1  2  1  0
  2  3  1  0
  3  4  2  0
  4  5  1  0
  5  6  1  0
  5  7  2  0
  7  8  1  0
  8  9  1  0
  9 10  1  0
  8 11  2  0
 11 12  1  0
 12 13  1  0
 13 14  2  0
 14 15  1  0
 15 16  2  0
 16 17  1  0
 17 18  1  0
 17 19  2  0
 19 20  1  0
 11  3  1  0
 19 13  1  0
M  END
>  <original ID>  (431) 
CGFWGZMMQCLVQG-UHFFFAOYSA-N

>  <generation_date>  (431) 
None

>  <alias>  (431) 
None

>  <original SMILES>  (431) 
COc1cc(Br)cc(CO)c1Nc1cccc(F)c1F

>  <HIPPO ID>  (431) 
106937

>  <tags>  (431) 
[]

>  <ref_pdb>  (431) 
c0270a

>  <method>  (431) 
None

>  <ref_url>  (431) 
None

>  <inchikey>  (431) 
CGFWGZMMQCLVQG-UHFFFAOYSA-N

>  <submitter_email>  (431) 
None

>  <ref_mols>  (431) 
c0692a,c1116a

>  <submitter_name>  (431) 
None

$$$$
FGOGOBYNWKCDDG-UHFFFAOYSA-N
     RDKit          3D

 20 22  0  0  0  0  0  0  0  0999 V2000
   15.2772   11.3114   14.4344 C   0  0  0  0  0  0  0  0  0  0  0  0
   16.3962   10.6973   13.7919 O   0  0  0  0  0  0  0  0  0  0  0  0
   15.9379    9.8932   12.7835 C   0  0  0  0  0  0  0  0  0  0  0  0
   15.3898    8.6415   13.1305 C   0  0  0  0  0  0  0  0  0  0  0  0
   14.8086    7.8279   12.1678 C   0  0  0  0  0  0  0  0  0  0  0  0
   14.7077    8.3373   10.8959 C   0  0  0  0  0  0  0  0  0  0  0  0
   15.2327    9.5970   10.5745 C   0  0  0  0  0  0  0  0  0  0  0  0
   15.9993   10.3322   11.4629 C   0  0  0  0  0  0  0  0  0  0  0  0
   16.6432   11.5187   11.0247 N   0  0  0  0  0  0  0  0  0  0  0  0
   18.0063   11.8582   11.2908 C   0  0  0  0  0  0  0  0  0  0  0  0
   19.0073   11.1111   10.6484 C   0  0  0  0  0  0  0  0  0  0  0  0
   20.3584   11.4111   10.8041 C   0  0  0  0  0  0  0  0  0  0  0  0
   20.7245   12.4638   11.6261 C   0  0  0  0  0  0  0  0  0  0  0  0
   22.5562   12.7920   11.9179 Br  0  0  0  0  0  0  0  0  0  0  0  0
   19.7487   13.2433   12.2521 C   0  0  0  0  0  0  0  0  0  0  0  0
   18.3766   12.9614   12.0778 C   0  0  0  0  0  0  0  0  0  0  0  0
   17.3678   13.8319   12.7680 C   0  0  0  0  0  0  0  0  0  0  0  0
   14.7022   10.0525    9.2614 C   0  0  0  0  0  0  0  0  0  0  0  0
   14.2938    8.7332    8.6589 C   0  0  0  0  0  0  0  0  0  0  0  0
   13.9895    7.7246    9.7486 C   0  0  0  0  0  0  0  0  0  0  0  0
  1  2  1  0
  2  3  1  0
  3  4  2  0
  4  5  1  0
  5  6  2  0
  6  7  1  0
  7  8  2  0
  8  9  1  0
  9 10  1  0
 10 11  2  0
 11 12  1  0
 12 13  2  0
 13 14  1  0
 13 15  1  0
 15 16  2  0
 16 17  1  0
  7 18  1  0
 18 19  1  0
 19 20  1  0
  8  3  1  0
 16 10  1  0
 20  6  1  0
M  END
>  <original ID>  (432) 
FGOGOBYNWKCDDG-UHFFFAOYSA-N

>  <generation_date>  (432) 
None

>  <alias>  (432) 
None

>  <original SMILES>  (432) 
COc1ccc2c(c1Nc1ccc(Br)cc1C)CCC2

>  <HIPPO ID>  (432) 
106947

>  <tags>  (432) 
[]

>  <ref_pdb>  (432) 
c0270a

>  <method>  (432) 
None

>  <ref_url>  (432) 
None

>  <inchikey>  (432) 
FGOGOBYNWKCDDG-UHFFFAOYSA-N

>  <submitter_email>  (432) 
None

>  <ref_mols>  (432) 
c0692a,c1116a

>  <submitter_name>  (432) 
None

$$$$
IQKMRHDQSYSLQT-UHFFFAOYSA-N
     RDKit          3D

 20 22  0  0  0  0  0  0  0  0999 V2000
   15.1872   11.7345   14.1588 C   0  0  0  0  0  0  0  0  0  0  0  0
   16.3226   10.9173   13.8377 O   0  0  0  0  0  0  0  0  0  0  0  0
   15.9520   10.0639   12.8340 C   0  0  0  0  0  0  0  0  0  0  0  0
   15.3892    8.8277   13.2119 C   0  0  0  0  0  0  0  0  0  0  0  0
   14.8459    7.9733   12.2610 C   0  0  0  0  0  0  0  0  0  0  0  0
   14.7852    8.4349   10.9684 C   0  0  0  0  0  0  0  0  0  0  0  0
   15.3221    9.6845   10.6208 C   0  0  0  0  0  0  0  0  0  0  0  0
   16.0724   10.4481   11.5020 C   0  0  0  0  0  0  0  0  0  0  0  0
   16.7408   11.6144   11.0368 N   0  0  0  0  0  0  0  0  0  0  0  0
   18.0845   12.0061   11.3703 C   0  0  0  0  0  0  0  0  0  0  0  0
   19.1392   11.3149   10.7540 C   0  0  0  0  0  0  0  0  0  0  0  0
   18.8232   10.3309    9.9110 F   0  0  0  0  0  0  0  0  0  0  0  0
   20.4800   11.6433   10.9276 C   0  0  0  0  0  0  0  0  0  0  0  0
   20.8050   12.7080   11.7532 C   0  0  0  0  0  0  0  0  0  0  0  0
   19.7837   13.4262   12.3807 C   0  0  0  0  0  0  0  0  0  0  0  0
   18.4323   13.0819   12.1932 C   0  0  0  0  0  0  0  0  0  0  0  0
   17.2573   14.0808   12.9593 Cl  0  0  0  0  0  0  0  0  0  0  0  0
   14.8117   10.0952    9.2843 C   0  0  0  0  0  0  0  0  0  0  0  0
   14.4590    8.7499    8.7062 C   0  0  0  0  0  0  0  0  0  0  0  0
   14.1008    7.7851    9.8183 C   0  0  0  0  0  0  0  0  0  0  0  0
  1  2  1  0
  2  3  1  0
  3  4  2  0
  4  5  1  0
  5  6  2  0
  6  7  1  0
  7  8  2  0
  8  9  1  0
  9 10  1  0
 10 11  2  0
 11 12  1  0
 11 13  1  0
 13 14  2  0
 14 15  1  0
 15 16  2  0
 16 17  1  0
  7 18  1  0
 18 19  1  0
 19 20  1  0
  8  3  1  0
 16 10  1  0
 20  6  1  0
M  END
>  <original ID>  (433) 
IQKMRHDQSYSLQT-UHFFFAOYSA-N

>  <generation_date>  (433) 
None

>  <alias>  (433) 
None

>  <original SMILES>  (433) 
COc1ccc2c(c1Nc1c(F)cccc1Cl)CCC2

>  <HIPPO ID>  (433) 
106948

>  <tags>  (433) 
[]

>  <ref_pdb>  (433) 
c0270a

>  <method>  (433) 
None

>  <ref_url>  (433) 
None

>  <inchikey>  (433) 
IQKMRHDQSYSLQT-UHFFFAOYSA-N

>  <submitter_email>  (433) 
None

>  <ref_mols>  (433) 
c0692a,c1116a

>  <submitter_name>  (433) 
None

$$$$
UPDOEAXZYXBBSA-UHFFFAOYSA-N
     RDKit          3D

 20 22  0  0  0  0  0  0  0  0999 V2000
   15.3385   11.3717   14.4064 C   0  0  0  0  0  0  0  0  0  0  0  0
   16.4502   10.7343   13.7707 O   0  0  0  0  0  0  0  0  0  0  0  0
   15.9821    9.9280   12.7696 C   0  0  0  0  0  0  0  0  0  0  0  0
   15.4099    8.6904   13.1316 C   0  0  0  0  0  0  0  0  0  0  0  0
   14.8216    7.8719   12.1781 C   0  0  0  0  0  0  0  0  0  0  0  0
   14.7312    8.3681   10.9008 C   0  0  0  0  0  0  0  0  0  0  0  0
   15.2753    9.6176   10.5670 C   0  0  0  0  0  0  0  0  0  0  0  0
   16.0605   10.3482   11.4437 C   0  0  0  0  0  0  0  0  0  0  0  0
   16.7372   11.5089   10.9846 N   0  0  0  0  0  0  0  0  0  0  0  0
   18.0971   11.8531   11.2745 C   0  0  0  0  0  0  0  0  0  0  0  0
   19.1099   11.1250   10.6260 C   0  0  0  0  0  0  0  0  0  0  0  0
   20.4593   11.4310   10.8044 C   0  0  0  0  0  0  0  0  0  0  0  0
   20.8098   12.4752   11.6420 C   0  0  0  0  0  0  0  0  0  0  0  0
   22.1059   12.7400   11.8404 F   0  0  0  0  0  0  0  0  0  0  0  0
   19.8354   13.2338   12.2824 C   0  0  0  0  0  0  0  0  0  0  0  0
   18.4794   12.9241   12.1022 C   0  0  0  0  0  0  0  0  0  0  0  0
   17.3184   13.9127   12.9100 Cl  0  0  0  0  0  0  0  0  0  0  0  0
   14.7353   10.0702    9.2567 C   0  0  0  0  0  0  0  0  0  0  0  0
   14.3193    8.7496    8.6619 C   0  0  0  0  0  0  0  0  0  0  0  0
   14.0087    7.7510    9.7582 C   0  0  0  0  0  0  0  0  0  0  0  0
  1  2  1  0
  2  3  1  0
  3  4  2  0
  4  5  1  0
  5  6  2  0
  6  7  1  0
  7  8  2  0
  8  9  1  0
  9 10  1  0
 10 11  2  0
 11 12  1  0
 12 13  2  0
 13 14  1  0
 13 15  1  0
 15 16  2  0
 16 17  1  0
  7 18  1  0
 18 19  1  0
 19 20  1  0
  8  3  1  0
 16 10  1  0
 20  6  1  0
M  END
>  <original ID>  (434) 
UPDOEAXZYXBBSA-UHFFFAOYSA-N

>  <generation_date>  (434) 
None

>  <alias>  (434) 
None

>  <original SMILES>  (434) 
COc1ccc2c(c1Nc1ccc(F)cc1Cl)CCC2

>  <HIPPO ID>  (434) 
106956

>  <tags>  (434) 
[]

>  <ref_pdb>  (434) 
c0270a

>  <method>  (434) 
None

>  <ref_url>  (434) 
None

>  <inchikey>  (434) 
UPDOEAXZYXBBSA-UHFFFAOYSA-N

>  <submitter_email>  (434) 
None

>  <ref_mols>  (434) 
c0692a,c1116a

>  <submitter_name>  (434) 
None

$$$$
NQAZGOXXEBWFMU-UHFFFAOYSA-N
     RDKit          3D

 20 21  0  0  0  0  0  0  0  0999 V2000
   22.5162   11.0602   10.9830 C   0  0  0  0  0  0  0  0  0  0  0  0
   21.6885   11.9595   10.2824 O   0  0  0  0  0  0  0  0  0  0  0  0
   20.5204   12.1088   10.9498 C   0  0  0  0  0  0  0  0  0  0  0  0
   19.4322   11.3448   10.5282 C   0  0  0  0  0  0  0  0  0  0  0  0
   18.1477   11.6284   10.9740 C   0  0  0  0  0  0  0  0  0  0  0  0
   17.0573   10.9866   10.3629 N   0  0  0  0  0  0  0  0  0  0  0  0
   16.1294   10.0048   10.7694 C   0  0  0  0  0  0  0  0  0  0  0  0
   15.5727    9.2468    9.7095 C   0  0  0  0  0  0  0  0  0  0  0  0
   14.6911    8.1920    9.9232 C   0  0  0  0  0  0  0  0  0  0  0  0
   14.3475    7.8558   11.2146 C   0  0  0  0  0  0  0  0  0  0  0  0
   14.7910    8.6569   12.2605 C   0  0  0  0  0  0  0  0  0  0  0  0
   14.2814    8.4155   13.4792 F   0  0  0  0  0  0  0  0  0  0  0  0
   15.6607    9.7352   12.0589 C   0  0  0  0  0  0  0  0  0  0  0  0
   16.0446   10.6694   13.4529 Cl  0  0  0  0  0  0  0  0  0  0  0  0
   18.0132   12.6606   11.8885 C   0  0  0  0  0  0  0  0  0  0  0  0
   19.1335   13.3789   12.3857 C   0  0  0  0  0  0  0  0  0  0  0  0
   18.9041   14.4641   13.3646 C   0  0  0  0  0  0  0  0  0  0  0  0
   17.8062   14.0742   14.1728 O   0  0  0  0  0  0  0  0  0  0  0  0
   20.4025   13.1097   11.8987 C   0  0  0  0  0  0  0  0  0  0  0  0
   22.1292   14.1768   12.5297 I   0  0  0  0  0  0  0  0  0  0  0  0
  1  2  1  0
  2  3  1  0
  3  4  2  0
  4  5  1  0
  5  6  1  0
  6  7  1  0
  7  8  2  0
  8  9  1  0
  9 10  2  0
 10 11  1  0
 11 12  1  0
 11 13  2  0
 13 14  1  0
  5 15  2  0
 15 16  1  0
 16 17  1  0
 17 18  1  0
 16 19  2  0
 19 20  1  0
 19  3  1  0
 13  7  1  0
M  END
>  <original ID>  (435) 
NQAZGOXXEBWFMU-UHFFFAOYSA-N

>  <generation_date>  (435) 
None

>  <alias>  (435) 
None

>  <original SMILES>  (435) 
COc1cc(Nc2cccc(F)c2Cl)cc(CO)c1I

>  <HIPPO ID>  (435) 
106958

>  <tags>  (435) 
[]

>  <ref_pdb>  (435) 
c0270a

>  <method>  (435) 
None

>  <ref_url>  (435) 
None

>  <inchikey>  (435) 
NQAZGOXXEBWFMU-UHFFFAOYSA-N

>  <submitter_email>  (435) 
None

>  <ref_mols>  (435) 
c0692a,c1116a

>  <submitter_name>  (435) 
None

$$$$
LJDHKYCSVRWXEM-UHFFFAOYSA-N
     RDKit          3D

 20 21  0  0  0  0  0  0  0  0999 V2000
   14.8311   10.7398   14.5535 C   0  0  0  0  0  0  0  0  0  0  0  0
   15.9449   10.2689   13.7996 O   0  0  0  0  0  0  0  0  0  0  0  0
   15.5236    9.5939   12.6815 C   0  0  0  0  0  0  0  0  0  0  0  0
   14.8777    8.3543   12.7880 C   0  0  0  0  0  0  0  0  0  0  0  0
   14.4272    7.7157   11.6368 C   0  0  0  0  0  0  0  0  0  0  0  0
   13.3470    6.1694   11.7110 Br  0  0  0  0  0  0  0  0  0  0  0  0
   14.6640    8.2790   10.4014 C   0  0  0  0  0  0  0  0  0  0  0  0
   15.3174    9.5183   10.3060 C   0  0  0  0  0  0  0  0  0  0  0  0
   15.4780   10.0567    8.9447 C   0  0  0  0  0  0  0  0  0  0  0  0
   16.4105    9.2094    8.3406 O   0  0  0  0  0  0  0  0  0  0  0  0
   15.7679   10.1970   11.4411 C   0  0  0  0  0  0  0  0  0  0  0  0
   16.3676   11.4930   11.3862 N   0  0  0  0  0  0  0  0  0  0  0  0
   17.7591   11.7957   11.4067 C   0  0  0  0  0  0  0  0  0  0  0  0
   18.7055   11.0436   10.7160 C   0  0  0  0  0  0  0  0  0  0  0  0
   20.0587   11.4052   10.7490 C   0  0  0  0  0  0  0  0  0  0  0  0
   20.9738   10.6502   10.1464 F   0  0  0  0  0  0  0  0  0  0  0  0
   20.5030   12.5278   11.4083 C   0  0  0  0  0  0  0  0  0  0  0  0
   19.5633   13.3068   12.0361 C   0  0  0  0  0  0  0  0  0  0  0  0
   19.9830   14.4108   12.6483 F   0  0  0  0  0  0  0  0  0  0  0  0
   18.2055   12.9701   12.0372 C   0  0  0  0  0  0  0  0  0  0  0  0
  1  2  1  0
  2  3  1  0
  3  4  2  0
  4  5  1  0
  5  6  1  0
  5  7  2  0
  7  8  1  0
  8  9  1  0
  9 10  1  0
  8 11  2  0
 11 12  1  0
 12 13  1  0
 13 14  2  0
 14 15  1  0
 15 16  1  0
 15 17  2  0
 17 18  1  0
 18 19  1  0
 18 20  2  0
 11  3  1  0
 20 13  1  0
M  END
>  <original ID>  (436) 
LJDHKYCSVRWXEM-UHFFFAOYSA-N

>  <generation_date>  (436) 
None

>  <alias>  (436) 
None

>  <original SMILES>  (436) 
COc1cc(Br)cc(CO)c1Nc1cc(F)cc(F)c1

>  <HIPPO ID>  (436) 
106967

>  <tags>  (436) 
[]

>  <ref_pdb>  (436) 
c0270a

>  <method>  (436) 
None

>  <ref_url>  (436) 
None

>  <inchikey>  (436) 
LJDHKYCSVRWXEM-UHFFFAOYSA-N

>  <submitter_email>  (436) 
None

>  <ref_mols>  (436) 
c0692a,c1116a

>  <submitter_name>  (436) 
None

$$$$
NQKBPQPMPVNSNB-UHFFFAOYSA-N
     RDKit          3D

 20 21  0  0  0  0  0  0  0  0999 V2000
   22.5164   11.1205   10.9722 C   0  0  0  0  0  0  0  0  0  0  0  0
   21.7074   12.1204   10.3941 O   0  0  0  0  0  0  0  0  0  0  0  0
   20.5647   12.2657   11.1089 C   0  0  0  0  0  0  0  0  0  0  0  0
   19.4589   11.5381   10.6914 C   0  0  0  0  0  0  0  0  0  0  0  0
   18.1913   11.8439   11.1735 C   0  0  0  0  0  0  0  0  0  0  0  0
   17.0980   11.2604   10.5031 N   0  0  0  0  0  0  0  0  0  0  0  0
   16.1907   10.2355   10.8105 C   0  0  0  0  0  0  0  0  0  0  0  0
   15.5281    9.6323    9.7225 C   0  0  0  0  0  0  0  0  0  0  0  0
   14.6346    8.5953    9.9135 C   0  0  0  0  0  0  0  0  0  0  0  0
   13.9429    8.1171    8.8752 F   0  0  0  0  0  0  0  0  0  0  0  0
   14.3924    8.1174   11.1821 C   0  0  0  0  0  0  0  0  0  0  0  0
   14.9318    8.8073   12.2620 C   0  0  0  0  0  0  0  0  0  0  0  0
   14.5021    8.5015   13.4927 F   0  0  0  0  0  0  0  0  0  0  0  0
   15.8282    9.8611   12.0945 C   0  0  0  0  0  0  0  0  0  0  0  0
   18.0802   12.8402   12.1544 C   0  0  0  0  0  0  0  0  0  0  0  0
   19.2244   13.5644   12.6147 C   0  0  0  0  0  0  0  0  0  0  0  0
   19.0429   14.7313   13.5545 C   0  0  0  0  0  0  0  0  0  0  0  0
   19.8643   14.7147   14.7137 O   0  0  0  0  0  0  0  0  0  0  0  0
   20.4794   13.2555   12.0810 C   0  0  0  0  0  0  0  0  0  0  0  0
   22.2744   14.2364   12.6693 I   0  0  0  0  0  0  0  0  0  0  0  0
  1  2  1  0
  2  3  1  0
  3  4  2  0
  4  5  1  0
  5  6  1  0
  6  7  1  0
  7  8  2  0
  8  9  1  0
  9 10  1  0
  9 11  2  0
 11 12  1  0
 12 13  1  0
 12 14  2  0
  5 15  2  0
 15 16  1  0
 16 17  1  0
 17 18  1  0
 16 19  2  0
 19 20  1  0
 19  3  1  0
 14  7  1  0
M  END
>  <original ID>  (437) 
NQKBPQPMPVNSNB-UHFFFAOYSA-N

>  <generation_date>  (437) 
None

>  <alias>  (437) 
None

>  <original SMILES>  (437) 
COc1cc(Nc2cc(F)cc(F)c2)cc(CO)c1I

>  <HIPPO ID>  (437) 
106968

>  <tags>  (437) 
[]

>  <ref_pdb>  (437) 
c0270a

>  <method>  (437) 
None

>  <ref_url>  (437) 
None

>  <inchikey>  (437) 
NQKBPQPMPVNSNB-UHFFFAOYSA-N

>  <submitter_email>  (437) 
None

>  <ref_mols>  (437) 
c0692a,c1116a

>  <submitter_name>  (437) 
None

$$$$
ZPNVWTHMWLOMFF-UHFFFAOYSA-N
     RDKit          3D

 20 21  0  0  0  0  0  0  0  0999 V2000
   14.8760   10.7586   14.5606 C   0  0  0  0  0  0  0  0  0  0  0  0
   15.9768   10.2684   13.8001 O   0  0  0  0  0  0  0  0  0  0  0  0
   15.5379    9.6007   12.6851 C   0  0  0  0  0  0  0  0  0  0  0  0
   14.8853    8.3649   12.7967 C   0  0  0  0  0  0  0  0  0  0  0  0
   14.4281    7.7251   11.6488 C   0  0  0  0  0  0  0  0  0  0  0  0
   13.3473    6.1796   11.7290 Br  0  0  0  0  0  0  0  0  0  0  0  0
   14.6618    8.2852   10.4115 C   0  0  0  0  0  0  0  0  0  0  0  0
   15.3197    9.5219   10.3111 C   0  0  0  0  0  0  0  0  0  0  0  0
   15.4824   10.0506    8.9462 C   0  0  0  0  0  0  0  0  0  0  0  0
   16.4287    9.2068    8.3566 O   0  0  0  0  0  0  0  0  0  0  0  0
   15.7790   10.2015   11.4432 C   0  0  0  0  0  0  0  0  0  0  0  0
   16.3980   11.4880   11.3818 N   0  0  0  0  0  0  0  0  0  0  0  0
   17.8036   11.7674   11.4063 C   0  0  0  0  0  0  0  0  0  0  0  0
   18.7057   11.0246   10.6433 C   0  0  0  0  0  0  0  0  0  0  0  0
   20.0755   11.3338   10.6219 C   0  0  0  0  0  0  0  0  0  0  0  0
   20.5695   12.4034   11.3593 C   0  0  0  0  0  0  0  0  0  0  0  0
   19.6869   13.1711   12.1052 C   0  0  0  0  0  0  0  0  0  0  0  0
   20.1819   14.1766   12.8423 F   0  0  0  0  0  0  0  0  0  0  0  0
   18.3154   12.8808   12.1135 C   0  0  0  0  0  0  0  0  0  0  0  0
   17.2554   13.8662   13.0634 Cl  0  0  0  0  0  0  0  0  0  0  0  0
  1  2  1  0
  2  3  1  0
  3  4  2  0
  4  5  1  0
  5  6  1  0
  5  7  2  0
  7  8  1  0
  8  9  1  0
  9 10  1  0
  8 11  2  0
 11 12  1  0
 12 13  1  0
 13 14  2  0
 14 15  1  0
 15 16  2  0
 16 17  1  0
 17 18  1  0
 17 19  2  0
 19 20  1  0
 11  3  1  0
 19 13  1  0
M  END
>  <original ID>  (438) 
ZPNVWTHMWLOMFF-UHFFFAOYSA-N

>  <generation_date>  (438) 
None

>  <alias>  (438) 
None

>  <original SMILES>  (438) 
COc1cc(Br)cc(CO)c1Nc1cccc(F)c1Cl

>  <HIPPO ID>  (438) 
106971

>  <tags>  (438) 
[]

>  <ref_pdb>  (438) 
c0270a

>  <method>  (438) 
None

>  <ref_url>  (438) 
None

>  <inchikey>  (438) 
ZPNVWTHMWLOMFF-UHFFFAOYSA-N

>  <submitter_email>  (438) 
None

>  <ref_mols>  (438) 
c0692a,c1116a

>  <submitter_name>  (438) 
None

$$$$
BZRILMWPJHFKLN-UHFFFAOYSA-N
     RDKit          3D

 20 22  0  0  0  0  0  0  0  0999 V2000
   15.3219   11.1393   14.5957 C   0  0  0  0  0  0  0  0  0  0  0  0
   16.4218   10.6840   13.8026 O   0  0  0  0  0  0  0  0  0  0  0  0
   15.9582    9.8907   12.7892 C   0  0  0  0  0  0  0  0  0  0  0  0
   15.3978    8.6374   13.1245 C   0  0  0  0  0  0  0  0  0  0  0  0
   14.8141    7.8307   12.1590 C   0  0  0  0  0  0  0  0  0  0  0  0
   14.7224    8.3476   10.8917 C   0  0  0  0  0  0  0  0  0  0  0  0
   15.2646    9.6030   10.5797 C   0  0  0  0  0  0  0  0  0  0  0  0
   16.0412   10.3303   11.4698 C   0  0  0  0  0  0  0  0  0  0  0  0
   16.6931   11.5010   11.0090 N   0  0  0  0  0  0  0  0  0  0  0  0
   17.9636   12.0106   11.4146 C   0  0  0  0  0  0  0  0  0  0  0  0
   19.1187   11.4287   10.8608 C   0  0  0  0  0  0  0  0  0  0  0  0
   20.3975   11.9305   11.1449 C   0  0  0  0  0  0  0  0  0  0  0  0
   21.6295   11.2691   10.6251 C   0  0  0  0  0  0  0  0  0  0  0  0
   20.5326   13.0318   11.9883 C   0  0  0  0  0  0  0  0  0  0  0  0
   19.4040   13.6260   12.5368 C   0  0  0  0  0  0  0  0  0  0  0  0
   18.1287   13.1160   12.2635 C   0  0  0  0  0  0  0  0  0  0  0  0
   16.6771   14.0368   13.0538 Br  0  0  0  0  0  0  0  0  0  0  0  0
   14.7342   10.0724    9.2704 C   0  0  0  0  0  0  0  0  0  0  0  0
   14.3181    8.7594    8.6577 C   0  0  0  0  0  0  0  0  0  0  0  0
   13.9994    7.7492    9.7406 C   0  0  0  0  0  0  0  0  0  0  0  0
  1  2  1  0
  2  3  1  0
  3  4  2  0
  4  5  1  0
  5  6  2  0
  6  7  1  0
  7  8  2  0
  8  9  1  0
  9 10  1  0
 10 11  2  0
 11 12  1  0
 12 13  1  0
 12 14  2  0
 14 15  1  0
 15 16  2  0
 16 17  1  0
  7 18  1  0
 18 19  1  0
 19 20  1  0
  8  3  1  0
 16 10  1  0
 20  6  1  0
M  END
>  <original ID>  (439) 
BZRILMWPJHFKLN-UHFFFAOYSA-N

>  <generation_date>  (439) 
None

>  <alias>  (439) 
None

>  <original SMILES>  (439) 
COc1ccc2c(c1Nc1cc(C)ccc1Br)CCC2

>  <HIPPO ID>  (439) 
107024

>  <tags>  (439) 
[]

>  <ref_pdb>  (439) 
c0270a

>  <method>  (439) 
None

>  <ref_url>  (439) 
None

>  <inchikey>  (439) 
BZRILMWPJHFKLN-UHFFFAOYSA-N

>  <submitter_email>  (439) 
None

>  <ref_mols>  (439) 
c0692a,c1116a

>  <submitter_name>  (439) 
None

$$$$
UHOYSPKAMGFGNV-UHFFFAOYSA-N
     RDKit          3D

 20 21  0  0  0  0  0  0  0  0999 V2000
   14.8509   11.0250   14.4808 C   0  0  0  0  0  0  0  0  0  0  0  0
   15.9750   10.6123   13.7097 O   0  0  0  0  0  0  0  0  0  0  0  0
   15.5987    9.7509   12.7092 C   0  0  0  0  0  0  0  0  0  0  0  0
   15.0567    8.5002   13.0110 C   0  0  0  0  0  0  0  0  0  0  0  0
   14.6842    7.6421   11.9860 C   0  0  0  0  0  0  0  0  0  0  0  0
   14.8583    8.0424   10.6708 C   0  0  0  0  0  0  0  0  0  0  0  0
   15.4154    9.3030   10.3602 C   0  0  0  0  0  0  0  0  0  0  0  0
   15.5143    9.6453    8.9143 C   0  0  0  0  0  0  0  0  0  0  0  0
   15.2993   10.9492    8.6304 F   0  0  0  0  0  0  0  0  0  0  0  0
   16.6865    9.2621    8.3831 F   0  0  0  0  0  0  0  0  0  0  0  0
   14.5542    8.9822    8.2077 F   0  0  0  0  0  0  0  0  0  0  0  0
   15.8181   10.1652   11.3846 C   0  0  0  0  0  0  0  0  0  0  0  0
   16.3904   11.4534   11.1594 N   0  0  0  0  0  0  0  0  0  0  0  0
   17.7828   11.7482   11.2719 C   0  0  0  0  0  0  0  0  0  0  0  0
   18.7381   11.0025   10.5864 C   0  0  0  0  0  0  0  0  0  0  0  0
   20.1010   11.3132   10.6672 C   0  0  0  0  0  0  0  0  0  0  0  0
   20.5223   12.3835   11.4430 C   0  0  0  0  0  0  0  0  0  0  0  0
   22.3678   12.7053   11.6449 Br  0  0  0  0  0  0  0  0  0  0  0  0
   19.5851   13.1834   12.0901 C   0  0  0  0  0  0  0  0  0  0  0  0
   18.2196   12.8753   11.9904 C   0  0  0  0  0  0  0  0  0  0  0  0
  1  2  1  0
  2  3  1  0
  3  4  2  0
  4  5  1  0
  5  6  2  0
  6  7  1  0
  7  8  1  0
  8  9  1  0
  8 10  1  0
  8 11  1  0
  7 12  2  0
 12 13  1  0
 13 14  1  0
 14 15  2  0
 15 16  1  0
 16 17  2  0
 17 18  1  0
 17 19  1  0
 19 20  2  0
 12  3  1  0
 20 14  1  0
M  END
>  <original ID>  (440) 
UHOYSPKAMGFGNV-UHFFFAOYSA-N

>  <generation_date>  (440) 
None

>  <alias>  (440) 
None

>  <original SMILES>  (440) 
COc1cccc(C(F)(F)F)c1Nc1ccc(Br)cc1

>  <HIPPO ID>  (440) 
107375

>  <tags>  (440) 
[]

>  <ref_pdb>  (440) 
c0270a

>  <method>  (440) 
None

>  <ref_url>  (440) 
None

>  <inchikey>  (440) 
UHOYSPKAMGFGNV-UHFFFAOYSA-N

>  <submitter_email>  (440) 
None

>  <ref_mols>  (440) 
c0692a,c1116a

>  <submitter_name>  (440) 
None

$$$$
PNEBIIIYMREFJL-UHFFFAOYSA-N
     RDKit          3D

 20 21  0  0  0  0  0  0  0  0999 V2000
   14.8644   11.0255   14.4886 C   0  0  0  0  0  0  0  0  0  0  0  0
   15.9845   10.6233   13.7061 O   0  0  0  0  0  0  0  0  0  0  0  0
   15.6082    9.7584   12.7086 C   0  0  0  0  0  0  0  0  0  0  0  0
   15.0622    8.5099   13.0130 C   0  0  0  0  0  0  0  0  0  0  0  0
   14.6879    7.6501   11.9899 C   0  0  0  0  0  0  0  0  0  0  0  0
   14.8626    8.0472   10.6739 C   0  0  0  0  0  0  0  0  0  0  0  0
   15.4230    9.3056   10.3607 C   0  0  0  0  0  0  0  0  0  0  0  0
   15.5189    9.6461    8.9142 C   0  0  0  0  0  0  0  0  0  0  0  0
   16.6902    9.2630    8.3812 F   0  0  0  0  0  0  0  0  0  0  0  0
   15.3025   10.9498    8.6300 F   0  0  0  0  0  0  0  0  0  0  0  0
   14.5577    8.9822    8.2098 F   0  0  0  0  0  0  0  0  0  0  0  0
   15.8303   10.1683   11.3831 C   0  0  0  0  0  0  0  0  0  0  0  0
   16.4057   11.4549   11.1545 N   0  0  0  0  0  0  0  0  0  0  0  0
   17.7976   11.7506   11.2712 C   0  0  0  0  0  0  0  0  0  0  0  0
   18.7563   11.0063   10.5882 C   0  0  0  0  0  0  0  0  0  0  0  0
   20.1195   11.3189   10.6738 C   0  0  0  0  0  0  0  0  0  0  0  0
   20.5386   12.3897   11.4502 C   0  0  0  0  0  0  0  0  0  0  0  0
   22.2167   12.6953   11.6338 Cl  0  0  0  0  0  0  0  0  0  0  0  0
   19.5969   13.1869   12.0947 C   0  0  0  0  0  0  0  0  0  0  0  0
   18.2315   12.8774   11.9919 C   0  0  0  0  0  0  0  0  0  0  0  0
  1  2  1  0
  2  3  1  0
  3  4  2  0
  4  5  1  0
  5  6  2  0
  6  7  1  0
  7  8  1  0
  8  9  1  0
  8 10  1  0
  8 11  1  0
  7 12  2  0
 12 13  1  0
 13 14  1  0
 14 15  2  0
 15 16  1  0
 16 17  2  0
 17 18  1  0
 17 19  1  0
 19 20  2  0
 12  3  1  0
 20 14  1  0
M  END
>  <original ID>  (441) 
PNEBIIIYMREFJL-UHFFFAOYSA-N

>  <generation_date>  (441) 
None

>  <alias>  (441) 
None

>  <original SMILES>  (441) 
COc1cccc(C(F)(F)F)c1Nc1ccc(Cl)cc1

>  <HIPPO ID>  (441) 
107377

>  <tags>  (441) 
[]

>  <ref_pdb>  (441) 
c0270a

>  <method>  (441) 
None

>  <ref_url>  (441) 
None

>  <inchikey>  (441) 
PNEBIIIYMREFJL-UHFFFAOYSA-N

>  <submitter_email>  (441) 
None

>  <ref_mols>  (441) 
c0692a,c1116a

>  <submitter_name>  (441) 
None

$$$$
KDXATKSRQNXSID-UHFFFAOYSA-N
     RDKit          3D

 20 21  0  0  0  0  0  0  0  0999 V2000
   14.8439   11.0481   14.4615 C   0  0  0  0  0  0  0  0  0  0  0  0
   15.9759   10.6154   13.7131 O   0  0  0  0  0  0  0  0  0  0  0  0
   15.6028    9.7554   12.7102 C   0  0  0  0  0  0  0  0  0  0  0  0
   15.0586    8.5058   13.0128 C   0  0  0  0  0  0  0  0  0  0  0  0
   14.6869    7.6469   11.9884 C   0  0  0  0  0  0  0  0  0  0  0  0
   14.8634    8.0462   10.6733 C   0  0  0  0  0  0  0  0  0  0  0  0
   15.4227    9.3061   10.3620 C   0  0  0  0  0  0  0  0  0  0  0  0
   15.5198    9.6472    8.9156 C   0  0  0  0  0  0  0  0  0  0  0  0
   14.5595    8.9810    8.2112 F   0  0  0  0  0  0  0  0  0  0  0  0
   16.6908    9.2638    8.3818 F   0  0  0  0  0  0  0  0  0  0  0  0
   15.3008   10.9497    8.6292 F   0  0  0  0  0  0  0  0  0  0  0  0
   15.8260   10.1688   11.3860 C   0  0  0  0  0  0  0  0  0  0  0  0
   16.4025   11.4551   11.1612 N   0  0  0  0  0  0  0  0  0  0  0  0
   17.7965   11.7478   11.2699 C   0  0  0  0  0  0  0  0  0  0  0  0
   18.7500   11.0024   10.5856 C   0  0  0  0  0  0  0  0  0  0  0  0
   20.1138   11.3146   10.6619 C   0  0  0  0  0  0  0  0  0  0  0  0
   20.5561   12.3953   11.4228 C   0  0  0  0  0  0  0  0  0  0  0  0
   22.0262   12.6419   11.5878 C   0  0  0  0  0  0  0  0  0  0  0  0
   19.6051   13.1822   12.0779 C   0  0  0  0  0  0  0  0  0  0  0  0
   18.2383   12.8735   11.9847 C   0  0  0  0  0  0  0  0  0  0  0  0
  1  2  1  0
  2  3  1  0
  3  4  2  0
  4  5  1  0
  5  6  2  0
  6  7  1  0
  7  8  1  0
  8  9  1  0
  8 10  1  0
  8 11  1  0
  7 12  2  0
 12 13  1  0
 13 14  1  0
 14 15  2  0
 15 16  1  0
 16 17  2  0
 17 18  1  0
 17 19  1  0
 19 20  2  0
 12  3  1  0
 20 14  1  0
M  END
>  <original ID>  (442) 
KDXATKSRQNXSID-UHFFFAOYSA-N

>  <generation_date>  (442) 
None

>  <alias>  (442) 
None

>  <original SMILES>  (442) 
COc1cccc(C(F)(F)F)c1Nc1ccc(C)cc1

>  <HIPPO ID>  (442) 
107388

>  <tags>  (442) 
[]

>  <ref_pdb>  (442) 
c0270a

>  <method>  (442) 
None

>  <ref_url>  (442) 
None

>  <inchikey>  (442) 
KDXATKSRQNXSID-UHFFFAOYSA-N

>  <submitter_email>  (442) 
None

>  <ref_mols>  (442) 
c0692a,c1116a

>  <submitter_name>  (442) 
None

$$$$
HMGQOEINPMSRMN-UHFFFAOYSA-N
     RDKit          3D

 20 21  0  0  0  0  0  0  0  0999 V2000
   15.1482   11.3537   14.1328 C   0  0  0  0  0  0  0  0  0  0  0  0
   16.2545   10.6371   13.5861 O   0  0  0  0  0  0  0  0  0  0  0  0
   15.8139    9.7964   12.5983 C   0  0  0  0  0  0  0  0  0  0  0  0
   15.1712    8.6094   12.9772 C   0  0  0  0  0  0  0  0  0  0  0  0
   14.6681    7.7401   12.0179 C   0  0  0  0  0  0  0  0  0  0  0  0
   14.7761    8.0794   10.6820 C   0  0  0  0  0  0  0  0  0  0  0  0
   15.4176    9.2751   10.3038 C   0  0  0  0  0  0  0  0  0  0  0  0
   15.4467    9.5946    8.8522 C   0  0  0  0  0  0  0  0  0  0  0  0
   14.3881    9.0702    8.1835 F   0  0  0  0  0  0  0  0  0  0  0  0
   16.5613    9.1237    8.2687 F   0  0  0  0  0  0  0  0  0  0  0  0
   15.3922   10.9263    8.6154 F   0  0  0  0  0  0  0  0  0  0  0  0
   16.0242   10.1221   11.2538 C   0  0  0  0  0  0  0  0  0  0  0  0
   16.7025   11.3157   10.8574 N   0  0  0  0  0  0  0  0  0  0  0  0
   18.0348   11.6957   11.1961 C   0  0  0  0  0  0  0  0  0  0  0  0
   19.1058   11.0540   10.5684 C   0  0  0  0  0  0  0  0  0  0  0  0
   20.4243   11.4641   10.7635 C   0  0  0  0  0  0  0  0  0  0  0  0
   20.6877   12.5502   11.5854 C   0  0  0  0  0  0  0  0  0  0  0  0
   19.6352   13.2270   12.2164 C   0  0  0  0  0  0  0  0  0  0  0  0
   19.9615   14.4123   13.0766 C   0  0  0  0  0  0  0  0  0  0  0  0
   18.3060   12.8006   12.0102 C   0  0  0  0  0  0  0  0  0  0  0  0
  1  2  1  0
  2  3  1  0
  3  4  2  0
  4  5  1  0
  5  6  2  0
  6  7  1  0
  7  8  1  0
  8  9  1  0
  8 10  1  0
  8 11  1  0
  7 12  2  0
 12 13  1  0
 13 14  1  0
 14 15  2  0
 15 16  1  0
 16 17  2  0
 17 18  1  0
 18 19  1  0
 18 20  2  0
 12  3  1  0
 20 14  1  0
M  END
>  <original ID>  (443) 
HMGQOEINPMSRMN-UHFFFAOYSA-N

>  <generation_date>  (443) 
None

>  <alias>  (443) 
None

>  <original SMILES>  (443) 
COc1cccc(C(F)(F)F)c1Nc1cccc(C)c1

>  <HIPPO ID>  (443) 
107393

>  <tags>  (443) 
[]

>  <ref_pdb>  (443) 
c0270a

>  <method>  (443) 
None

>  <ref_url>  (443) 
None

>  <inchikey>  (443) 
HMGQOEINPMSRMN-UHFFFAOYSA-N

>  <submitter_email>  (443) 
None

>  <ref_mols>  (443) 
c0692a,c1116a

>  <submitter_name>  (443) 
None

$$$$
RHTIMHGYHWXYKX-UHFFFAOYSA-N
     RDKit          3D

 20 21  0  0  0  0  0  0  0  0999 V2000
   13.1086    6.1839   10.5622 C   0  0  0  0  0  0  0  0  0  0  0  0
   13.5846    6.7865   11.7659 O   0  0  0  0  0  0  0  0  0  0  0  0
   14.4341    7.8456   11.6215 C   0  0  0  0  0  0  0  0  0  0  0  0
   14.8758    8.3298   10.4125 C   0  0  0  0  0  0  0  0  0  0  0  0
   15.5683    9.5423   10.3743 C   0  0  0  0  0  0  0  0  0  0  0  0
   15.9056   10.0043    9.0670 C   0  0  0  0  0  0  0  0  0  0  0  0
   16.3078    9.1718    8.2796 O   0  0  0  0  0  0  0  0  0  0  0  0
   15.8557   10.3079   11.4921 C   0  0  0  0  0  0  0  0  0  0  0  0
   16.4899   11.5810   11.4599 N   0  0  0  0  0  0  0  0  0  0  0  0
   17.8867   11.8373   11.4034 C   0  0  0  0  0  0  0  0  0  0  0  0
   18.7723   11.0651   10.6553 C   0  0  0  0  0  0  0  0  0  0  0  0
   20.1472   11.3336   10.6583 C   0  0  0  0  0  0  0  0  0  0  0  0
   20.6473   12.3932   11.4016 C   0  0  0  0  0  0  0  0  0  0  0  0
   22.5098   12.6475   11.5151 Br  0  0  0  0  0  0  0  0  0  0  0  0
   19.7759   13.2357   12.0818 C   0  0  0  0  0  0  0  0  0  0  0  0
   18.4005   12.9703   12.0621 C   0  0  0  0  0  0  0  0  0  0  0  0
   15.4760    9.7512   12.7141 C   0  0  0  0  0  0  0  0  0  0  0  0
   15.8300   10.4483   13.8406 O   0  0  0  0  0  0  0  0  0  0  0  0
   14.6833   10.8697   14.5674 C   0  0  0  0  0  0  0  0  0  0  0  0
   14.7925    8.5276   12.7869 C   0  0  0  0  0  0  0  0  0  0  0  0
  1  2  1  0
  2  3  1  0
  3  4  2  0
  4  5  1  0
  5  6  1  0
  6  7  2  0
  5  8  2  0
  8  9  1  0
  9 10  1  0
 10 11  2  0
 11 12  1  0
 12 13  2  0
 13 14  1  0
 13 15  1  0
 15 16  2  0
  8 17  1  0
 17 18  1  0
 18 19  1  0
 17 20  2  0
 20  3  1  0
 16 10  1  0
M  END
>  <original ID>  (444) 
RHTIMHGYHWXYKX-UHFFFAOYSA-N

>  <generation_date>  (444) 
None

>  <alias>  (444) 
None

>  <original SMILES>  (444) 
COc1cc(C=O)c(Nc2ccc(Br)cc2)c(OC)c1

>  <HIPPO ID>  (444) 
107430

>  <tags>  (444) 
[]

>  <ref_pdb>  (444) 
c0270a

>  <method>  (444) 
None

>  <ref_url>  (444) 
None

>  <inchikey>  (444) 
RHTIMHGYHWXYKX-UHFFFAOYSA-N

>  <submitter_email>  (444) 
None

>  <ref_mols>  (444) 
c0692a,c1116a

>  <submitter_name>  (444) 
None

$$$$
LUHDSRWBNROJDG-UHFFFAOYSA-N
     RDKit          3D

 20 21  0  0  0  0  0  0  0  0999 V2000
   12.7421    6.0088   11.5902 C   0  0  0  0  0  0  0  0  0  0  0  0
   13.4467    6.8648   12.4768 O   0  0  0  0  0  0  0  0  0  0  0  0
   14.3034    7.7881   11.9574 C   0  0  0  0  0  0  0  0  0  0  0  0
   14.4841    8.0212   10.6184 C   0  0  0  0  0  0  0  0  0  0  0  0
   15.2663    9.1113   10.2473 C   0  0  0  0  0  0  0  0  0  0  0  0
   15.3463    9.2886    8.8296 C   0  0  0  0  0  0  0  0  0  0  0  0
   16.4632    9.3606    8.3603 O   0  0  0  0  0  0  0  0  0  0  0  0
   15.9625    9.9670   11.1266 C   0  0  0  0  0  0  0  0  0  0  0  0
   16.7134   11.0671   10.6031 N   0  0  0  0  0  0  0  0  0  0  0  0
   17.9686   11.5690   11.0501 C   0  0  0  0  0  0  0  0  0  0  0  0
   19.1345   11.0313   10.4918 C   0  0  0  0  0  0  0  0  0  0  0  0
   20.4033   11.5080   10.8123 C   0  0  0  0  0  0  0  0  0  0  0  0
   20.5194   12.5614   11.7022 C   0  0  0  0  0  0  0  0  0  0  0  0
   22.0885   13.1028   12.1331 Cl  0  0  0  0  0  0  0  0  0  0  0  0
   19.3727   13.1420   12.2542 C   0  0  0  0  0  0  0  0  0  0  0  0
   18.0963   12.6350   11.9411 C   0  0  0  0  0  0  0  0  0  0  0  0
   15.7024    9.7400   12.4750 C   0  0  0  0  0  0  0  0  0  0  0  0
   16.2091   10.5884   13.4228 O   0  0  0  0  0  0  0  0  0  0  0  0
   15.1596   11.2520   14.1279 C   0  0  0  0  0  0  0  0  0  0  0  0
   14.9225    8.6378   12.8828 C   0  0  0  0  0  0  0  0  0  0  0  0
  1  2  1  0
  2  3  1  0
  3  4  2  0
  4  5  1  0
  5  6  1  0
  6  7  2  0
  5  8  2  0
  8  9  1  0
  9 10  1  0
 10 11  2  0
 11 12  1  0
 12 13  2  0
 13 14  1  0
 13 15  1  0
 15 16  2  0
  8 17  1  0
 17 18  1  0
 18 19  1  0
 17 20  2  0
 20  3  1  0
 16 10  1  0
M  END
>  <original ID>  (445) 
LUHDSRWBNROJDG-UHFFFAOYSA-N

>  <generation_date>  (445) 
None

>  <alias>  (445) 
None

>  <original SMILES>  (445) 
COc1cc(C=O)c(Nc2ccc(Cl)cc2)c(OC)c1

>  <HIPPO ID>  (445) 
107432

>  <tags>  (445) 
[]

>  <ref_pdb>  (445) 
c0270a

>  <method>  (445) 
None

>  <ref_url>  (445) 
None

>  <inchikey>  (445) 
LUHDSRWBNROJDG-UHFFFAOYSA-N

>  <submitter_email>  (445) 
None

>  <ref_mols>  (445) 
c0692a,c1116a

>  <submitter_name>  (445) 
None

$$$$
XONXRALQOCTMBV-UHFFFAOYSA-N
     RDKit          3D

 20 21  0  0  0  0  0  0  0  0999 V2000
   13.1105    6.1884   10.5595 C   0  0  0  0  0  0  0  0  0  0  0  0
   13.5843    6.7891   11.7650 O   0  0  0  0  0  0  0  0  0  0  0  0
   14.4362    7.8468   11.6236 C   0  0  0  0  0  0  0  0  0  0  0  0
   14.8808    8.3323   10.4164 C   0  0  0  0  0  0  0  0  0  0  0  0
   15.5776    9.5428   10.3813 C   0  0  0  0  0  0  0  0  0  0  0  0
   15.9129   10.0079    9.0746 C   0  0  0  0  0  0  0  0  0  0  0  0
   16.3007    9.1756    8.2795 O   0  0  0  0  0  0  0  0  0  0  0  0
   15.8669   10.3056   11.5006 C   0  0  0  0  0  0  0  0  0  0  0  0
   16.5049   11.5768   11.4722 N   0  0  0  0  0  0  0  0  0  0  0  0
   17.9017   11.8336   11.4042 C   0  0  0  0  0  0  0  0  0  0  0  0
   18.7836   11.0620   10.6550 C   0  0  0  0  0  0  0  0  0  0  0  0
   20.1587   11.3333   10.6490 C   0  0  0  0  0  0  0  0  0  0  0  0
   20.6819   12.3925   11.3884 C   0  0  0  0  0  0  0  0  0  0  0  0
   22.1620   12.6257   11.4206 C   0  0  0  0  0  0  0  0  0  0  0  0
   19.7961   13.2389   12.0562 C   0  0  0  0  0  0  0  0  0  0  0  0
   18.4202   12.9704   12.0491 C   0  0  0  0  0  0  0  0  0  0  0  0
   15.4830    9.7475   12.7208 C   0  0  0  0  0  0  0  0  0  0  0  0
   15.8386   10.4412   13.8489 O   0  0  0  0  0  0  0  0  0  0  0  0
   14.6947   10.8540   14.5842 C   0  0  0  0  0  0  0  0  0  0  0  0
   14.7948    8.5260   12.7904 C   0  0  0  0  0  0  0  0  0  0  0  0
  1  2  1  0
  2  3  1  0
  3  4  2  0
  4  5  1  0
  5  6  1  0
  6  7  2  0
  5  8  2  0
  8  9  1  0
  9 10  1  0
 10 11  2  0
 11 12  1  0
 12 13  2  0
 13 14  1  0
 13 15  1  0
 15 16  2  0
  8 17  1  0
 17 18  1  0
 18 19  1  0
 17 20  2  0
 20  3  1  0
 16 10  1  0
M  END
>  <original ID>  (446) 
XONXRALQOCTMBV-UHFFFAOYSA-N

>  <generation_date>  (446) 
None

>  <alias>  (446) 
None

>  <original SMILES>  (446) 
COc1cc(C=O)c(Nc2ccc(C)cc2)c(OC)c1

>  <HIPPO ID>  (446) 
107443

>  <tags>  (446) 
[]

>  <ref_pdb>  (446) 
c0270a

>  <method>  (446) 
None

>  <ref_url>  (446) 
None

>  <inchikey>  (446) 
XONXRALQOCTMBV-UHFFFAOYSA-N

>  <submitter_email>  (446) 
None

>  <ref_mols>  (446) 
c0692a,c1116a

>  <submitter_name>  (446) 
None

$$$$
PXUYDLQZUJCXAK-UHFFFAOYSA-N
     RDKit          3D

 20 21  0  0  0  0  0  0  0  0999 V2000
   23.1058   12.9060   11.1959 C   0  0  0  0  0  0  0  0  0  0  0  0
   22.0932   13.3654   12.0963 O   0  0  0  0  0  0  0  0  0  0  0  0
   20.8226   12.9174   11.8831 C   0  0  0  0  0  0  0  0  0  0  0  0
   20.5036   11.8790   11.0456 C   0  0  0  0  0  0  0  0  0  0  0  0
   19.1624   11.5196   10.8974 C   0  0  0  0  0  0  0  0  0  0  0  0
   18.9530   10.4606    9.9486 C   0  0  0  0  0  0  0  0  0  0  0  0
   17.8794    9.8991    9.8799 O   0  0  0  0  0  0  0  0  0  0  0  0
   18.0818   12.1386   11.5553 C   0  0  0  0  0  0  0  0  0  0  0  0
   16.7108   11.8250   11.2036 N   0  0  0  0  0  0  0  0  0  0  0  0
   15.9298   10.6366   11.4400 C   0  0  0  0  0  0  0  0  0  0  0  0
   15.3407    9.9810   10.3206 C   0  0  0  0  0  0  0  0  0  0  0  0
   14.7341    8.7376   10.4371 C   0  0  0  0  0  0  0  0  0  0  0  0
   14.5628    8.2047   11.7032 C   0  0  0  0  0  0  0  0  0  0  0  0
   14.9486    8.9401   12.8387 C   0  0  0  0  0  0  0  0  0  0  0  0
   14.5192    8.4853   14.1976 C   0  0  0  0  0  0  0  0  0  0  0  0
   15.6637   10.1436   12.7039 C   0  0  0  0  0  0  0  0  0  0  0  0
   18.4269   13.1841   12.4240 C   0  0  0  0  0  0  0  0  0  0  0  0
   17.3986   13.7861   13.0994 O   0  0  0  0  0  0  0  0  0  0  0  0
   17.6699   15.0630   13.6633 C   0  0  0  0  0  0  0  0  0  0  0  0
   19.7884   13.5559   12.5796 C   0  0  0  0  0  0  0  0  0  0  0  0
  1  2  1  0
  2  3  1  0
  3  4  2  0
  4  5  1  0
  5  6  1  0
  6  7  2  0
  5  8  2  0
  8  9  1  0
  9 10  1  0
 10 11  2  0
 11 12  1  0
 12 13  2  0
 13 14  1  0
 14 15  1  0
 14 16  2  0
  8 17  1  0
 17 18  1  0
 18 19  1  0
 17 20  2  0
 20  3  1  0
 16 10  1  0
M  END
>  <original ID>  (447) 
PXUYDLQZUJCXAK-UHFFFAOYSA-N

>  <generation_date>  (447) 
None

>  <alias>  (447) 
None

>  <original SMILES>  (447) 
COc1cc(C=O)c(Nc2cccc(C)c2)c(OC)c1

>  <HIPPO ID>  (447) 
107448

>  <tags>  (447) 
[]

>  <ref_pdb>  (447) 
c0270a

>  <method>  (447) 
None

>  <ref_url>  (447) 
None

>  <inchikey>  (447) 
PXUYDLQZUJCXAK-UHFFFAOYSA-N

>  <submitter_email>  (447) 
None

>  <ref_mols>  (447) 
c0692a,c1116a

>  <submitter_name>  (447) 
None

$$$$
QNSSVUXXNQOWMI-UHFFFAOYSA-N
     RDKit          3D

 20 21  0  0  0  0  0  0  0  0999 V2000
   22.4836   11.0608   11.0391 C   0  0  0  0  0  0  0  0  0  0  0  0
   21.6661   11.9365   10.2954 O   0  0  0  0  0  0  0  0  0  0  0  0
   20.4684   12.0692   10.9138 C   0  0  0  0  0  0  0  0  0  0  0  0
   19.4096   11.2700   10.4710 C   0  0  0  0  0  0  0  0  0  0  0  0
   18.1089   11.5068   10.8933 C   0  0  0  0  0  0  0  0  0  0  0  0
   17.0388   10.8091   10.3238 N   0  0  0  0  0  0  0  0  0  0  0  0
   16.0975    9.8674   10.7929 C   0  0  0  0  0  0  0  0  0  0  0  0
   15.4861    9.0929    9.7868 C   0  0  0  0  0  0  0  0  0  0  0  0
   15.8035    9.3525    8.5149 F   0  0  0  0  0  0  0  0  0  0  0  0
   14.6177    8.0402   10.0402 C   0  0  0  0  0  0  0  0  0  0  0  0
   14.3482    7.7005   11.3501 C   0  0  0  0  0  0  0  0  0  0  0  0
   14.8587    8.4968   12.3736 C   0  0  0  0  0  0  0  0  0  0  0  0
   15.6853    9.6016   12.1001 C   0  0  0  0  0  0  0  0  0  0  0  0
   16.0917   10.5533   13.4745 Cl  0  0  0  0  0  0  0  0  0  0  0  0
   17.9271   12.5466   11.7790 C   0  0  0  0  0  0  0  0  0  0  0  0
   19.0088   13.3043   12.2959 C   0  0  0  0  0  0  0  0  0  0  0  0
   18.6888   14.3566   13.2776 C   0  0  0  0  0  0  0  0  0  0  0  0
   17.5839   13.8512   14.0152 O   0  0  0  0  0  0  0  0  0  0  0  0
   20.2973   13.0757   11.8488 C   0  0  0  0  0  0  0  0  0  0  0  0
   21.9653   14.1953   12.5292 I   0  0  0  0  0  0  0  0  0  0  0  0
  1  2  1  0
  2  3  1  0
  3  4  2  0
  4  5  1  0
  5  6  1  0
  6  7  1  0
  7  8  2  0
  8  9  1  0
  8 10  1  0
 10 11  2  0
 11 12  1  0
 12 13  2  0
 13 14  1  0
  5 15  2  0
 15 16  1  0
 16 17  1  0
 17 18  1  0
 16 19  2  0
 19 20  1  0
 19  3  1  0
 13  7  1  0
M  END
>  <original ID>  (448) 
QNSSVUXXNQOWMI-UHFFFAOYSA-N

>  <generation_date>  (448) 
None

>  <alias>  (448) 
None

>  <original SMILES>  (448) 
COc1cc(Nc2c(F)cccc2Cl)cc(CO)c1I

>  <HIPPO ID>  (448) 
107563

>  <tags>  (448) 
[]

>  <ref_pdb>  (448) 
c0270a

>  <method>  (448) 
None

>  <ref_url>  (448) 
None

>  <inchikey>  (448) 
QNSSVUXXNQOWMI-UHFFFAOYSA-N

>  <submitter_email>  (448) 
None

>  <ref_mols>  (448) 
c0692a,c1116a

>  <submitter_name>  (448) 
None

$$$$
ZADLJMBSORAXFW-UHFFFAOYSA-N
     RDKit          3D

 20 21  0  0  0  0  0  0  0  0999 V2000
   13.6534    8.8569    8.4298 C   0  0  0  0  0  0  0  0  0  0  0  0
   14.6102    8.0592    9.0981 O   0  0  0  0  0  0  0  0  0  0  0  0
   14.9843    8.6505   10.2632 C   0  0  0  0  0  0  0  0  0  0  0  0
   15.7263    9.8332   10.2281 C   0  0  0  0  0  0  0  0  0  0  0  0
   15.9618   10.5250   11.4044 C   0  0  0  0  0  0  0  0  0  0  0  0
   16.6139   11.7755   11.4241 N   0  0  0  0  0  0  0  0  0  0  0  0
   18.0128   12.0019   11.4282 C   0  0  0  0  0  0  0  0  0  0  0  0
   18.8740   11.1833   10.6868 C   0  0  0  0  0  0  0  0  0  0  0  0
   20.2576   11.3758   10.7028 C   0  0  0  0  0  0  0  0  0  0  0  0
   20.7989   12.3968   11.4661 C   0  0  0  0  0  0  0  0  0  0  0  0
   22.6704   12.5663   11.5893 Br  0  0  0  0  0  0  0  0  0  0  0  0
   19.9655   13.2671   12.1632 C   0  0  0  0  0  0  0  0  0  0  0  0
   18.5676   13.0932   12.1388 C   0  0  0  0  0  0  0  0  0  0  0  0
   17.7168   14.0515   12.9290 C   0  0  0  0  0  0  0  0  0  0  0  0
   15.5104    9.9722   12.6074 C   0  0  0  0  0  0  0  0  0  0  0  0
   14.8115    8.7484   12.6618 C   0  0  0  0  0  0  0  0  0  0  0  0
   14.3242    8.3015   14.0065 C   0  0  0  0  0  0  0  0  0  0  0  0
   13.5082    9.3162   14.5890 O   0  0  0  0  0  0  0  0  0  0  0  0
   14.5752    8.0650   11.4646 C   0  0  0  0  0  0  0  0  0  0  0  0
   13.5041    6.2197   11.3636 I   0  0  0  0  0  0  0  0  0  0  0  0
  1  2  1  0
  2  3  1  0
  3  4  2  0
  4  5  1  0
  5  6  1  0
  6  7  1  0
  7  8  2  0
  8  9  1  0
  9 10  2  0
 10 11  1  0
 10 12  1  0
 12 13  2  0
 13 14  1  0
  5 15  2  0
 15 16  1  0
 16 17  1  0
 17 18  1  0
 16 19  2  0
 19 20  1  0
 19  3  1  0
 13  7  1  0
M  END
>  <original ID>  (449) 
ZADLJMBSORAXFW-UHFFFAOYSA-N

>  <generation_date>  (449) 
None

>  <alias>  (449) 
None

>  <original SMILES>  (449) 
COc1cc(Nc2ccc(Br)cc2C)cc(CO)c1I

>  <HIPPO ID>  (449) 
107575

>  <tags>  (449) 
[]

>  <ref_pdb>  (449) 
c0270a

>  <method>  (449) 
None

>  <ref_url>  (449) 
None

>  <inchikey>  (449) 
ZADLJMBSORAXFW-UHFFFAOYSA-N

>  <submitter_email>  (449) 
None

>  <ref_mols>  (449) 
c0692a,c1116a

>  <submitter_name>  (449) 
None

$$$$
UNUSILQXLYPQKG-UHFFFAOYSA-N
     RDKit          3D

 21 22  0  0  0  0  0  0  0  0999 V2000
   22.8695   12.7042   10.9670 C   0  0  0  0  0  0  0  0  0  0  0  0
   21.9170   13.2717   11.8632 O   0  0  0  0  0  0  0  0  0  0  0  0
   20.6132   12.8985   11.7203 C   0  0  0  0  0  0  0  0  0  0  0  0
   20.1593   11.8505   10.9461 C   0  0  0  0  0  0  0  0  0  0  0  0
   18.7823   11.5379   10.9124 C   0  0  0  0  0  0  0  0  0  0  0  0
   18.4825   10.4017   10.0695 C   0  0  0  0  0  0  0  0  0  0  0  0
   17.6223    9.5817   10.3200 O   0  0  0  0  0  0  0  0  0  0  0  0
   17.8167   12.2434   11.6302 C   0  0  0  0  0  0  0  0  0  0  0  0
   16.3881   12.0714   11.5374 N   0  0  0  0  0  0  0  0  0  0  0  0
   15.6647   10.8415   11.5033 C   0  0  0  0  0  0  0  0  0  0  0  0
   15.1518   10.3520   10.2918 C   0  0  0  0  0  0  0  0  0  0  0  0
   14.5750    9.0732   10.2068 C   0  0  0  0  0  0  0  0  0  0  0  0
   13.9430    8.6259    8.9312 C   0  0  0  0  0  0  0  0  0  0  0  0
   14.5507    8.2533   11.3347 C   0  0  0  0  0  0  0  0  0  0  0  0
   14.9757    8.7559   12.5612 C   0  0  0  0  0  0  0  0  0  0  0  0
   15.4891   10.0523   12.6463 C   0  0  0  0  0  0  0  0  0  0  0  0
   15.8638   10.7480   14.3644 Br  0  0  0  0  0  0  0  0  0  0  0  0
   18.3051   13.3355   12.3771 C   0  0  0  0  0  0  0  0  0  0  0  0
   17.3465   14.0231   13.0815 O   0  0  0  0  0  0  0  0  0  0  0  0
   17.6141   15.4039   13.2766 C   0  0  0  0  0  0  0  0  0  0  0  0
   19.6793   13.6369   12.4445 C   0  0  0  0  0  0  0  0  0  0  0  0
  1  2  1  0
  2  3  1  0
  3  4  2  0
  4  5  1  0
  5  6  1  0
  6  7  2  0
  5  8  2  0
  8  9  1  0
  9 10  1  0
 10 11  2  0
 11 12  1  0
 12 13  1  0
 12 14  2  0
 14 15  1  0
 15 16  2  0
 16 17  1  0
  8 18  1  0
 18 19  1  0
 19 20  1  0
 18 21  2  0
 21  3  1  0
 16 10  1  0
M  END
>  <original ID>  (450) 
UNUSILQXLYPQKG-UHFFFAOYSA-N

>  <generation_date>  (450) 
None

>  <alias>  (450) 
None

>  <original SMILES>  (450) 
COc1cc(C=O)c(Nc2cc(C)ccc2Br)c(OC)c1

>  <HIPPO ID>  (450) 
108386

>  <tags>  (450) 
[]

>  <ref_pdb>  (450) 
c0270a

>  <method>  (450) 
None

>  <ref_url>  (450) 
None

>  <inchikey>  (450) 
UNUSILQXLYPQKG-UHFFFAOYSA-N

>  <submitter_email>  (450) 
None

>  <ref_mols>  (450) 
c0692a,c1116a

>  <submitter_name>  (450) 
None

$$$$
WZMJDUIUMSRQKC-UHFFFAOYSA-N
     RDKit          3D

 21 22  0  0  0  0  0  0  0  0999 V2000
   15.2514   10.8938   14.5375 C   0  0  0  0  0  0  0  0  0  0  0  0
   16.2729   10.5480   13.6021 O   0  0  0  0  0  0  0  0  0  0  0  0
   15.8042    9.7344   12.6054 C   0  0  0  0  0  0  0  0  0  0  0  0
   15.1579    8.5314   12.9424 C   0  0  0  0  0  0  0  0  0  0  0  0
   14.6467    7.6905   11.9633 C   0  0  0  0  0  0  0  0  0  0  0  0
   14.7541    8.0666   10.6412 C   0  0  0  0  0  0  0  0  0  0  0  0
   15.4038    9.2686   10.2982 C   0  0  0  0  0  0  0  0  0  0  0  0
   15.4423    9.6072    8.8507 C   0  0  0  0  0  0  0  0  0  0  0  0
   15.3851   10.9399    8.6231 F   0  0  0  0  0  0  0  0  0  0  0  0
   14.3917    9.0830    8.1692 F   0  0  0  0  0  0  0  0  0  0  0  0
   16.5640    9.1434    8.2733 F   0  0  0  0  0  0  0  0  0  0  0  0
   16.0201   10.0926   11.2678 C   0  0  0  0  0  0  0  0  0  0  0  0
   16.6882   11.2917   10.8685 N   0  0  0  0  0  0  0  0  0  0  0  0
   17.9212   11.8386   11.3379 C   0  0  0  0  0  0  0  0  0  0  0  0
   19.1141   11.3235   10.8020 C   0  0  0  0  0  0  0  0  0  0  0  0
   20.3634   11.8825   11.1150 C   0  0  0  0  0  0  0  0  0  0  0  0
   21.6352   11.2830   10.6157 C   0  0  0  0  0  0  0  0  0  0  0  0
   20.4315   12.9868   11.9615 C   0  0  0  0  0  0  0  0  0  0  0  0
   19.2648   13.5284   12.4816 C   0  0  0  0  0  0  0  0  0  0  0  0
   18.0194   12.9590   12.1812 C   0  0  0  0  0  0  0  0  0  0  0  0
   16.5186   13.8296   12.9358 Br  0  0  0  0  0  0  0  0  0  0  0  0
  1  2  1  0
  2  3  1  0
  3  4  2  0
  4  5  1  0
  5  6  2  0
  6  7  1  0
  7  8  1  0
  8  9  1  0
  8 10  1  0
  8 11  1  0
  7 12  2  0
 12 13  1  0
 13 14  1  0
 14 15  2  0
 15 16  1  0
 16 17  1  0
 16 18  2  0
 18 19  1  0
 19 20  2  0
 20 21  1  0
 12  3  1  0
 20 14  1  0
M  END
>  <original ID>  (451) 
WZMJDUIUMSRQKC-UHFFFAOYSA-N

>  <generation_date>  (451) 
None

>  <alias>  (451) 
None

>  <original SMILES>  (451) 
COc1cccc(C(F)(F)F)c1Nc1cc(C)ccc1Br

>  <HIPPO ID>  (451) 
108411

>  <tags>  (451) 
[]

>  <ref_pdb>  (451) 
c0270a

>  <method>  (451) 
None

>  <ref_url>  (451) 
None

>  <inchikey>  (451) 
WZMJDUIUMSRQKC-UHFFFAOYSA-N

>  <submitter_email>  (451) 
None

>  <ref_mols>  (451) 
c0692a,c1116a

>  <submitter_name>  (451) 
None

$$$$
HQULIOAWOOFOMG-UHFFFAOYSA-N
     RDKit          3D

 21 22  0  0  0  0  0  0  0  0999 V2000
   15.1477   11.0113   14.4970 C   0  0  0  0  0  0  0  0  0  0  0  0
   16.2200   10.6146   13.6427 O   0  0  0  0  0  0  0  0  0  0  0  0
   15.7858    9.7817   12.6463 C   0  0  0  0  0  0  0  0  0  0  0  0
   15.1635    8.5679   12.9806 C   0  0  0  0  0  0  0  0  0  0  0  0
   14.6841    7.7153   11.9950 C   0  0  0  0  0  0  0  0  0  0  0  0
   14.8037    8.0888   10.6714 C   0  0  0  0  0  0  0  0  0  0  0  0
   15.4302    9.3040   10.3296 C   0  0  0  0  0  0  0  0  0  0  0  0
   15.4681    9.6347    8.8776 C   0  0  0  0  0  0  0  0  0  0  0  0
   15.4246   10.9689    8.6545 F   0  0  0  0  0  0  0  0  0  0  0  0
   16.5700    9.1488    8.2849 F   0  0  0  0  0  0  0  0  0  0  0  0
   14.4005    9.1287    8.2054 F   0  0  0  0  0  0  0  0  0  0  0  0
   16.0071   10.1441   11.3113 C   0  0  0  0  0  0  0  0  0  0  0  0
   16.6357   11.3859   10.9514 N   0  0  0  0  0  0  0  0  0  0  0  0
   17.9472   11.8418   11.3399 C   0  0  0  0  0  0  0  0  0  0  0  0
   19.0594   11.2496   10.7279 C   0  0  0  0  0  0  0  0  0  0  0  0
   18.8299   10.2689    9.8588 F   0  0  0  0  0  0  0  0  0  0  0  0
   20.3683   11.6785   10.9214 C   0  0  0  0  0  0  0  0  0  0  0  0
   20.5974   12.7602   11.7550 C   0  0  0  0  0  0  0  0  0  0  0  0
   19.5133   13.3912   12.3728 C   0  0  0  0  0  0  0  0  0  0  0  0
   18.1898   12.9435   12.1744 C   0  0  0  0  0  0  0  0  0  0  0  0
   16.8911   13.8579   12.9807 S   0  0  0  0  0  0  0  0  0  0  0  0
  1  2  1  0
  2  3  1  0
  3  4  2  0
  4  5  1  0
  5  6  2  0
  6  7  1  0
  7  8  1  0
  8  9  1  0
  8 10  1  0
  8 11  1  0
  7 12  2  0
 12 13  1  0
 13 14  1  0
 14 15  2  0
 15 16  1  0
 15 17  1  0
 17 18  2  0
 18 19  1  0
 19 20  2  0
 20 21  1  0
 12  3  1  0
 20 14  1  0
M  END
>  <original ID>  (452) 
HQULIOAWOOFOMG-UHFFFAOYSA-N

>  <generation_date>  (452) 
None

>  <alias>  (452) 
None

>  <original SMILES>  (452) 
COc1cccc(C(F)(F)F)c1Nc1c(F)cccc1S

>  <HIPPO ID>  (452) 
108437

>  <tags>  (452) 
[]

>  <ref_pdb>  (452) 
c0270a

>  <method>  (452) 
None

>  <ref_url>  (452) 
None

>  <inchikey>  (452) 
HQULIOAWOOFOMG-UHFFFAOYSA-N

>  <submitter_email>  (452) 
None

>  <ref_mols>  (452) 
c0692a,c1116a

>  <submitter_name>  (452) 
None

$$$$
BGRMONFREHZGPQ-UHFFFAOYSA-N
     RDKit          3D

 21 22  0  0  0  0  0  0  0  0999 V2000
   15.8290   10.4635   14.6103 C   0  0  0  0  0  0  0  0  0  0  0  0
   16.6133   10.8864   13.4887 O   0  0  0  0  0  0  0  0  0  0  0  0
   15.8485   11.0685   12.3680 C   0  0  0  0  0  0  0  0  0  0  0  0
   14.6367   11.7493   12.4574 C   0  0  0  0  0  0  0  0  0  0  0  0
   13.8354   11.8348   11.3486 C   0  0  0  0  0  0  0  0  0  0  0  0
   14.1445   11.0484   10.2640 C   0  0  0  0  0  0  0  0  0  0  0  0
   15.3701   10.4214   10.1391 C   0  0  0  0  0  0  0  0  0  0  0  0
   15.5734    9.7972    8.8155 C   0  0  0  0  0  0  0  0  0  0  0  0
   15.4286   10.7632    7.8874 F   0  0  0  0  0  0  0  0  0  0  0  0
   16.7490    9.1803    8.6443 F   0  0  0  0  0  0  0  0  0  0  0  0
   14.6194    8.8774    8.5133 F   0  0  0  0  0  0  0  0  0  0  0  0
   16.3216   10.6141   11.1242 C   0  0  0  0  0  0  0  0  0  0  0  0
   17.6853   10.5460   10.7775 N   0  0  0  0  0  0  0  0  0  0  0  0
   18.7085   11.4989   11.0034 C   0  0  0  0  0  0  0  0  0  0  0  0
   19.9883   11.1938   10.5318 C   0  0  0  0  0  0  0  0  0  0  0  0
   21.0971   11.9319   10.9198 C   0  0  0  0  0  0  0  0  0  0  0  0
   22.3085   11.5485   10.5301 F   0  0  0  0  0  0  0  0  0  0  0  0
   20.9760   13.0423   11.7150 C   0  0  0  0  0  0  0  0  0  0  0  0
   19.7084   13.4002   12.1118 C   0  0  0  0  0  0  0  0  0  0  0  0
   19.5753   14.4918   12.8567 F   0  0  0  0  0  0  0  0  0  0  0  0
   18.5779   12.6516   11.7781 C   0  0  0  0  0  0  0  0  0  0  0  0
  1  2  1  0
  2  3  1  0
  3  4  2  0
  4  5  1  0
  5  6  2  0
  6  7  1  0
  7  8  1  0
  8  9  1  0
  8 10  1  0
  8 11  1  0
  7 12  2  0
 12 13  1  0
 13 14  1  0
 14 15  2  0
 15 16  1  0
 16 17  1  0
 16 18  2  0
 18 19  1  0
 19 20  1  0
 19 21  2  0
 12  3  1  0
 21 14  1  0
M  END
>  <original ID>  (453) 
BGRMONFREHZGPQ-UHFFFAOYSA-N

>  <generation_date>  (453) 
None

>  <alias>  (453) 
None

>  <original SMILES>  (453) 
COc1cccc(C(F)(F)F)c1Nc1cc(F)cc(F)c1

>  <HIPPO ID>  (453) 
108441

>  <tags>  (453) 
[]

>  <ref_pdb>  (453) 
c0270a

>  <method>  (453) 
None

>  <ref_url>  (453) 
None

>  <inchikey>  (453) 
BGRMONFREHZGPQ-UHFFFAOYSA-N

>  <submitter_email>  (453) 
None

>  <ref_mols>  (453) 
c0692a,c1116a

>  <submitter_name>  (453) 
None

$$$$
UZNZDWLYCMUGBO-UHFFFAOYSA-N
     RDKit          3D

 21 22  0  0  0  0  0  0  0  0999 V2000
   15.1655   11.2181   14.2726 C   0  0  0  0  0  0  0  0  0  0  0  0
   16.2748   10.6119   13.6064 O   0  0  0  0  0  0  0  0  0  0  0  0
   15.8291    9.7844   12.6107 C   0  0  0  0  0  0  0  0  0  0  0  0
   15.1853    8.5909   12.9730 C   0  0  0  0  0  0  0  0  0  0  0  0
   14.6801    7.7337   12.0052 C   0  0  0  0  0  0  0  0  0  0  0  0
   14.7915    8.0885   10.6752 C   0  0  0  0  0  0  0  0  0  0  0  0
   15.4374    9.2873   10.3109 C   0  0  0  0  0  0  0  0  0  0  0  0
   15.4666    9.6101    8.8600 C   0  0  0  0  0  0  0  0  0  0  0  0
   14.4186    9.0721    8.1863 F   0  0  0  0  0  0  0  0  0  0  0  0
   16.5895    9.1541    8.2803 F   0  0  0  0  0  0  0  0  0  0  0  0
   15.3953   10.9422    8.6286 F   0  0  0  0  0  0  0  0  0  0  0  0
   16.0434   10.1273   11.2705 C   0  0  0  0  0  0  0  0  0  0  0  0
   16.7243   11.3273   10.8861 N   0  0  0  0  0  0  0  0  0  0  0  0
   18.0607   11.7188   11.2293 C   0  0  0  0  0  0  0  0  0  0  0  0
   19.1191   11.0648   10.5779 C   0  0  0  0  0  0  0  0  0  0  0  0
   20.4544   11.4414   10.7582 C   0  0  0  0  0  0  0  0  0  0  0  0
   20.7590   12.5032   11.5957 C   0  0  0  0  0  0  0  0  0  0  0  0
   19.7270   13.1813   12.2364 C   0  0  0  0  0  0  0  0  0  0  0  0
   20.0587   14.1984   13.0463 F   0  0  0  0  0  0  0  0  0  0  0  0
   18.3820   12.8115   12.0564 C   0  0  0  0  0  0  0  0  0  0  0  0
   17.1673   13.7439   12.8530 Cl  0  0  0  0  0  0  0  0  0  0  0  0
  1  2  1  0
  2  3  1  0
  3  4  2  0
  4  5  1  0
  5  6  2  0
  6  7  1  0
  7  8  1  0
  8  9  1  0
  8 10  1  0
  8 11  1  0
  7 12  2  0
 12 13  1  0
 13 14  1  0
 14 15  2  0
 15 16  1  0
 16 17  2  0
 17 18  1  0
 18 19  1  0
 18 20  2  0
 20 21  1  0
 12  3  1  0
 20 14  1  0
M  END
>  <original ID>  (454) 
UZNZDWLYCMUGBO-UHFFFAOYSA-N

>  <generation_date>  (454) 
None

>  <alias>  (454) 
None

>  <original SMILES>  (454) 
COc1cccc(C(F)(F)F)c1Nc1cccc(F)c1Cl

>  <HIPPO ID>  (454) 
108450

>  <tags>  (454) 
[]

>  <ref_pdb>  (454) 
c0270a

>  <method>  (454) 
None

>  <ref_url>  (454) 
None

>  <inchikey>  (454) 
UZNZDWLYCMUGBO-UHFFFAOYSA-N

>  <submitter_email>  (454) 
None

>  <ref_mols>  (454) 
c0692a,c1116a

>  <submitter_name>  (454) 
None

$$$$
KBFDRYYFHGUWCU-UHFFFAOYSA-N
     RDKit          3D

 21 22  0  0  0  0  0  0  0  0999 V2000
   22.8145   12.5317   10.8585 C   0  0  0  0  0  0  0  0  0  0  0  0
   21.8886   13.1459   11.7565 O   0  0  0  0  0  0  0  0  0  0  0  0
   20.5751   12.7957   11.6409 C   0  0  0  0  0  0  0  0  0  0  0  0
   20.0928   11.7576   10.8772 C   0  0  0  0  0  0  0  0  0  0  0  0
   18.7119   11.4712   10.8696 C   0  0  0  0  0  0  0  0  0  0  0  0
   18.3829   10.3333   10.0528 C   0  0  0  0  0  0  0  0  0  0  0  0
   17.6067    9.4691   10.4121 O   0  0  0  0  0  0  0  0  0  0  0  0
   17.7580   12.1801   11.5962 C   0  0  0  0  0  0  0  0  0  0  0  0
   16.3263   12.0038   11.4942 N   0  0  0  0  0  0  0  0  0  0  0  0
   15.5997   10.7721   11.3277 C   0  0  0  0  0  0  0  0  0  0  0  0
   15.1906   10.2847   10.0644 C   0  0  0  0  0  0  0  0  0  0  0  0
   15.3740   11.0081    8.9577 F   0  0  0  0  0  0  0  0  0  0  0  0
   14.6689    8.9994    9.8842 C   0  0  0  0  0  0  0  0  0  0  0  0
   14.5443    8.1505   10.9753 C   0  0  0  0  0  0  0  0  0  0  0  0
   14.8873    8.6160   12.2462 C   0  0  0  0  0  0  0  0  0  0  0  0
   15.3901    9.9148   12.4189 C   0  0  0  0  0  0  0  0  0  0  0  0
   15.7615   10.4381   14.0214 Cl  0  0  0  0  0  0  0  0  0  0  0  0
   18.2737   13.2585   12.3506 C   0  0  0  0  0  0  0  0  0  0  0  0
   17.3397   13.9535   13.0825 O   0  0  0  0  0  0  0  0  0  0  0  0
   17.7551   15.2127   13.6011 C   0  0  0  0  0  0  0  0  0  0  0  0
   19.6600   13.5414   12.3834 C   0  0  0  0  0  0  0  0  0  0  0  0
  1  2  1  0
  2  3  1  0
  3  4  2  0
  4  5  1  0
  5  6  1  0
  6  7  2  0
  5  8  2  0
  8  9  1  0
  9 10  1  0
 10 11  2  0
 11 12  1  0
 11 13  1  0
 13 14  2  0
 14 15  1  0
 15 16  2  0
 16 17  1  0
  8 18  1  0
 18 19  1  0
 19 20  1  0
 18 21  2  0
 21  3  1  0
 16 10  1  0
M  END
>  <original ID>  (455) 
KBFDRYYFHGUWCU-UHFFFAOYSA-N

>  <generation_date>  (455) 
None

>  <alias>  (455) 
None

>  <original SMILES>  (455) 
COc1cc(C=O)c(Nc2c(F)cccc2Cl)c(OC)c1

>  <HIPPO ID>  (455) 
108457

>  <tags>  (455) 
[]

>  <ref_pdb>  (455) 
c0270a

>  <method>  (455) 
None

>  <ref_url>  (455) 
None

>  <inchikey>  (455) 
KBFDRYYFHGUWCU-UHFFFAOYSA-N

>  <submitter_email>  (455) 
None

>  <ref_mols>  (455) 
c0692a,c1116a

>  <submitter_name>  (455) 
None

$$$$
LVPQYMFNPLFBQP-UHFFFAOYSA-N
     RDKit          3D

 21 22  0  0  0  0  0  0  0  0999 V2000
   12.8242    6.3258   12.7364 C   0  0  0  0  0  0  0  0  0  0  0  0
   13.3923    6.7353   11.5049 O   0  0  0  0  0  0  0  0  0  0  0  0
   14.2839    7.7663   11.5226 C   0  0  0  0  0  0  0  0  0  0  0  0
   14.5646    8.2393   10.2629 C   0  0  0  0  0  0  0  0  0  0  0  0
   15.3303    9.3913   10.1371 C   0  0  0  0  0  0  0  0  0  0  0  0
   15.5976    9.7661    8.7898 C   0  0  0  0  0  0  0  0  0  0  0  0
   16.5366    9.1966    8.2733 O   0  0  0  0  0  0  0  0  0  0  0  0
   15.9061   10.1062   11.1937 C   0  0  0  0  0  0  0  0  0  0  0  0
   16.5900   11.3415   10.9512 N   0  0  0  0  0  0  0  0  0  0  0  0
   17.9379   11.6845   11.2842 C   0  0  0  0  0  0  0  0  0  0  0  0
   18.9700   11.0044   10.6232 C   0  0  0  0  0  0  0  0  0  0  0  0
   20.3082   11.3650   10.7753 C   0  0  0  0  0  0  0  0  0  0  0  0
   20.6320   12.4280   11.6004 C   0  0  0  0  0  0  0  0  0  0  0  0
   22.4483   12.8365   11.8869 Br  0  0  0  0  0  0  0  0  0  0  0  0
   19.6232   13.1598   12.2303 C   0  0  0  0  0  0  0  0  0  0  0  0
   18.2639   12.8103   12.0629 C   0  0  0  0  0  0  0  0  0  0  0  0
   17.2169   13.6320   12.7561 C   0  0  0  0  0  0  0  0  0  0  0  0
   15.6023    9.6054   12.4588 C   0  0  0  0  0  0  0  0  0  0  0  0
   16.0526   10.2642   13.5736 O   0  0  0  0  0  0  0  0  0  0  0  0
   14.9835   10.9990   14.1694 C   0  0  0  0  0  0  0  0  0  0  0  0
   14.8317    8.4260   12.6267 C   0  0  0  0  0  0  0  0  0  0  0  0
  1  2  1  0
  2  3  1  0
  3  4  2  0
  4  5  1  0
  5  6  1  0
  6  7  2  0
  5  8  2  0
  8  9  1  0
  9 10  1  0
 10 11  2  0
 11 12  1  0
 12 13  2  0
 13 14  1  0
 13 15  1  0
 15 16  2  0
 16 17  1  0
  8 18  1  0
 18 19  1  0
 19 20  1  0
 18 21  2  0
 21  3  1  0
 16 10  1  0
M  END
>  <original ID>  (456) 
LVPQYMFNPLFBQP-UHFFFAOYSA-N

>  <generation_date>  (456) 
None

>  <alias>  (456) 
None

>  <original SMILES>  (456) 
COc1cc(C=O)c(Nc2ccc(Br)cc2C)c(OC)c1

>  <HIPPO ID>  (456) 
108458

>  <tags>  (456) 
[]

>  <ref_pdb>  (456) 
c0270a

>  <method>  (456) 
None

>  <ref_url>  (456) 
None

>  <inchikey>  (456) 
LVPQYMFNPLFBQP-UHFFFAOYSA-N

>  <submitter_email>  (456) 
None

>  <ref_mols>  (456) 
c0692a,c1116a

>  <submitter_name>  (456) 
None

$$$$
GKPOMQCDLPHOPC-UHFFFAOYSA-N
     RDKit          3D

 21 22  0  0  0  0  0  0  0  0999 V2000
   13.1126    6.2025   10.5839 C   0  0  0  0  0  0  0  0  0  0  0  0
   13.5903    6.8152   11.7825 O   0  0  0  0  0  0  0  0  0  0  0  0
   14.4464    7.8683   11.6300 C   0  0  0  0  0  0  0  0  0  0  0  0
   14.8905    8.3386   10.4169 C   0  0  0  0  0  0  0  0  0  0  0  0
   15.5922    9.5455   10.3688 C   0  0  0  0  0  0  0  0  0  0  0  0
   15.9149    9.9997    9.0558 C   0  0  0  0  0  0  0  0  0  0  0  0
   16.3270    9.1663    8.2748 O   0  0  0  0  0  0  0  0  0  0  0  0
   15.8932   10.3183   11.4784 C   0  0  0  0  0  0  0  0  0  0  0  0
   16.5386   11.5833   11.4249 N   0  0  0  0  0  0  0  0  0  0  0  0
   17.9434   11.8409   11.4027 C   0  0  0  0  0  0  0  0  0  0  0  0
   18.8300   11.0751   10.6451 C   0  0  0  0  0  0  0  0  0  0  0  0
   20.2059   11.3440   10.6574 C   0  0  0  0  0  0  0  0  0  0  0  0
   20.7036   12.3955   11.4115 C   0  0  0  0  0  0  0  0  0  0  0  0
   22.0250   12.5974   11.4678 F   0  0  0  0  0  0  0  0  0  0  0  0
   19.8469   13.2246   12.1176 C   0  0  0  0  0  0  0  0  0  0  0  0
   18.4756   12.9550   12.0994 C   0  0  0  0  0  0  0  0  0  0  0  0
   17.4327   13.9747   13.0339 Cl  0  0  0  0  0  0  0  0  0  0  0  0
   15.5040    9.7785   12.7041 C   0  0  0  0  0  0  0  0  0  0  0  0
   15.8535   10.4811   13.8278 O   0  0  0  0  0  0  0  0  0  0  0  0
   14.6998   10.9746   14.5000 C   0  0  0  0  0  0  0  0  0  0  0  0
   14.8084    8.5612   12.7884 C   0  0  0  0  0  0  0  0  0  0  0  0
  1  2  1  0
  2  3  1  0
  3  4  2  0
  4  5  1  0
  5  6  1  0
  6  7  2  0
  5  8  2  0
  8  9  1  0
  9 10  1  0
 10 11  2  0
 11 12  1  0
 12 13  2  0
 13 14  1  0
 13 15  1  0
 15 16  2  0
 16 17  1  0
  8 18  1  0
 18 19  1  0
 19 20  1  0
 18 21  2  0
 21  3  1  0
 16 10  1  0
M  END
>  <original ID>  (457) 
GKPOMQCDLPHOPC-UHFFFAOYSA-N

>  <generation_date>  (457) 
None

>  <alias>  (457) 
None

>  <original SMILES>  (457) 
COc1cc(C=O)c(Nc2ccc(F)cc2Cl)c(OC)c1

>  <HIPPO ID>  (457) 
108461

>  <tags>  (457) 
[]

>  <ref_pdb>  (457) 
c0270a

>  <method>  (457) 
None

>  <ref_url>  (457) 
None

>  <inchikey>  (457) 
GKPOMQCDLPHOPC-UHFFFAOYSA-N

>  <submitter_email>  (457) 
None

>  <ref_mols>  (457) 
c0692a,c1116a

>  <submitter_name>  (457) 
None

$$$$
VMQVAVFNGWMFOG-UHFFFAOYSA-N
     RDKit          3D

 21 22  0  0  0  0  0  0  0  0999 V2000
   15.2439   11.5275   14.0478 C   0  0  0  0  0  0  0  0  0  0  0  0
   16.3344   10.7567   13.5391 O   0  0  0  0  0  0  0  0  0  0  0  0
   15.8753    9.8945   12.5801 C   0  0  0  0  0  0  0  0  0  0  0  0
   15.2054    8.7387   13.0090 C   0  0  0  0  0  0  0  0  0  0  0  0
   14.6845    7.8399   12.0893 C   0  0  0  0  0  0  0  0  0  0  0  0
   14.7924    8.1257   10.7420 C   0  0  0  0  0  0  0  0  0  0  0  0
   15.4586    9.2917   10.3132 C   0  0  0  0  0  0  0  0  0  0  0  0
   15.4756    9.5545    8.8496 C   0  0  0  0  0  0  0  0  0  0  0  0
   15.2722   10.8613    8.5515 F   0  0  0  0  0  0  0  0  0  0  0  0
   14.5015    8.8810    8.1905 F   0  0  0  0  0  0  0  0  0  0  0  0
   16.6481    9.1948    8.3018 F   0  0  0  0  0  0  0  0  0  0  0  0
   16.0997   10.1580   11.2240 C   0  0  0  0  0  0  0  0  0  0  0  0
   16.8259   11.2996   10.7635 N   0  0  0  0  0  0  0  0  0  0  0  0
   18.1339   11.7201   11.1624 C   0  0  0  0  0  0  0  0  0  0  0  0
   19.2402   11.1081   10.5523 C   0  0  0  0  0  0  0  0  0  0  0  0
   20.5530   11.5198   10.8058 C   0  0  0  0  0  0  0  0  0  0  0  0
   20.7829   12.5755   11.6767 C   0  0  0  0  0  0  0  0  0  0  0  0
   19.6999   13.2032   12.2835 C   0  0  0  0  0  0  0  0  0  0  0  0
   19.9418   14.2159   13.1274 F   0  0  0  0  0  0  0  0  0  0  0  0
   18.3854   12.7866   12.0361 C   0  0  0  0  0  0  0  0  0  0  0  0
   17.3773   13.4404   12.6333 F   0  0  0  0  0  0  0  0  0  0  0  0
  1  2  1  0
  2  3  1  0
  3  4  2  0
  4  5  1  0
  5  6  2  0
  6  7  1  0
  7  8  1  0
  8  9  1  0
  8 10  1  0
  8 11  1  0
  7 12  2  0
 12 13  1  0
 13 14  1  0
 14 15  2  0
 15 16  1  0
 16 17  2  0
 17 18  1  0
 18 19  1  0
 18 20  2  0
 20 21  1  0
 12  3  1  0
 20 14  1  0
M  END
>  <original ID>  (458) 
VMQVAVFNGWMFOG-UHFFFAOYSA-N

>  <generation_date>  (458) 
None

>  <alias>  (458) 
None

>  <original SMILES>  (458) 
COc1cccc(C(F)(F)F)c1Nc1cccc(F)c1F

>  <HIPPO ID>  (458) 
108467

>  <tags>  (458) 
[]

>  <ref_pdb>  (458) 
c0270a

>  <method>  (458) 
None

>  <ref_url>  (458) 
None

>  <inchikey>  (458) 
VMQVAVFNGWMFOG-UHFFFAOYSA-N

>  <submitter_email>  (458) 
None

>  <ref_mols>  (458) 
c0692a,c1116a

>  <submitter_name>  (458) 
None

$$$$
USYSOWQTGWSNHY-UHFFFAOYSA-N
     RDKit          3D

 21 22  0  0  0  0  0  0  0  0999 V2000
   15.1325   11.1856   14.2696 C   0  0  0  0  0  0  0  0  0  0  0  0
   16.2375   10.5435   13.6330 O   0  0  0  0  0  0  0  0  0  0  0  0
   15.7883    9.7324   12.6255 C   0  0  0  0  0  0  0  0  0  0  0  0
   15.1594    8.5274   12.9689 C   0  0  0  0  0  0  0  0  0  0  0  0
   14.6635    7.6821   11.9853 C   0  0  0  0  0  0  0  0  0  0  0  0
   14.7769    8.0565   10.6595 C   0  0  0  0  0  0  0  0  0  0  0  0
   15.4083    9.2681   10.3141 C   0  0  0  0  0  0  0  0  0  0  0  0
   15.4547    9.6083    8.8675 C   0  0  0  0  0  0  0  0  0  0  0  0
   14.4059    9.0893    8.1803 F   0  0  0  0  0  0  0  0  0  0  0  0
   16.5773    9.1474    8.2908 F   0  0  0  0  0  0  0  0  0  0  0  0
   15.3995   10.9443    8.6510 F   0  0  0  0  0  0  0  0  0  0  0  0
   15.9873   10.1044   11.2912 C   0  0  0  0  0  0  0  0  0  0  0  0
   16.6428   11.3273   10.9407 N   0  0  0  0  0  0  0  0  0  0  0  0
   17.9987   11.6851   11.2320 C   0  0  0  0  0  0  0  0  0  0  0  0
   19.0168   11.0025   10.5541 C   0  0  0  0  0  0  0  0  0  0  0  0
   20.3636   11.3520   10.6859 C   0  0  0  0  0  0  0  0  0  0  0  0
   20.7085   12.4160   11.4986 C   0  0  0  0  0  0  0  0  0  0  0  0
   22.0113   12.7711   11.6668 O   0  0  0  0  0  0  0  0  0  0  0  0
   19.7247   13.1429   12.1617 C   0  0  0  0  0  0  0  0  0  0  0  0
   18.3721   12.7854   12.0259 C   0  0  0  0  0  0  0  0  0  0  0  0
   17.2076   13.7453   12.8639 Cl  0  0  0  0  0  0  0  0  0  0  0  0
  1  2  1  0
  2  3  1  0
  3  4  2  0
  4  5  1  0
  5  6  2  0
  6  7  1  0
  7  8  1  0
  8  9  1  0
  8 10  1  0
  8 11  1  0
  7 12  2  0
 12 13  1  0
 13 14  1  0
 14 15  2  0
 15 16  1  0
 16 17  2  0
 17 18  1  0
 17 19  1  0
 19 20  2  0
 20 21  1  0
 12  3  1  0
 20 14  1  0
M  END
>  <original ID>  (459) 
USYSOWQTGWSNHY-UHFFFAOYSA-N

>  <generation_date>  (459) 
None

>  <alias>  (459) 
None

>  <original SMILES>  (459) 
COc1cccc(C(F)(F)F)c1Nc1ccc(O)cc1Cl

>  <HIPPO ID>  (459) 
108481

>  <tags>  (459) 
[]

>  <ref_pdb>  (459) 
c0270a

>  <method>  (459) 
None

>  <ref_url>  (459) 
None

>  <inchikey>  (459) 
USYSOWQTGWSNHY-UHFFFAOYSA-N

>  <submitter_email>  (459) 
None

>  <ref_mols>  (459) 
c0692a,c1116a

>  <submitter_name>  (459) 
None

$$$$
LKHIISSVEOAUKT-UHFFFAOYSA-N
     RDKit          3D

 21 22  0  0  0  0  0  0  0  0999 V2000
   22.6309   12.3798   12.9211 C   0  0  0  0  0  0  0  0  0  0  0  0
   22.0297   13.0389   11.8048 O   0  0  0  0  0  0  0  0  0  0  0  0
   20.6873   12.8055   11.7649 C   0  0  0  0  0  0  0  0  0  0  0  0
   20.2211   11.8047   10.9441 C   0  0  0  0  0  0  0  0  0  0  0  0
   18.8429   11.5341   10.9002 C   0  0  0  0  0  0  0  0  0  0  0  0
   18.5229   10.4003   10.0683 C   0  0  0  0  0  0  0  0  0  0  0  0
   17.6941    9.5679   10.3828 O   0  0  0  0  0  0  0  0  0  0  0  0
   17.8922   12.2513   11.6314 C   0  0  0  0  0  0  0  0  0  0  0  0
   16.4647   12.0948   11.5418 N   0  0  0  0  0  0  0  0  0  0  0  0
   15.7037   10.9128   11.3287 C   0  0  0  0  0  0  0  0  0  0  0  0
   15.3170   10.4903   10.0409 C   0  0  0  0  0  0  0  0  0  0  0  0
   14.7214    9.2447    9.8373 C   0  0  0  0  0  0  0  0  0  0  0  0
   14.3317    8.8761    8.6100 F   0  0  0  0  0  0  0  0  0  0  0  0
   14.4956    8.3942   10.9015 C   0  0  0  0  0  0  0  0  0  0  0  0
   14.7984    8.8473   12.1799 C   0  0  0  0  0  0  0  0  0  0  0  0
   14.4109    8.1209   13.2357 F   0  0  0  0  0  0  0  0  0  0  0  0
   15.3975   10.0843   12.4074 C   0  0  0  0  0  0  0  0  0  0  0  0
   18.4054   13.3192   12.4106 C   0  0  0  0  0  0  0  0  0  0  0  0
   17.4578   14.0097   13.1317 O   0  0  0  0  0  0  0  0  0  0  0  0
   17.8774   15.2397   13.7118 C   0  0  0  0  0  0  0  0  0  0  0  0
   19.7885   13.5859   12.4799 C   0  0  0  0  0  0  0  0  0  0  0  0
  1  2  1  0
  2  3  1  0
  3  4  2  0
  4  5  1  0
  5  6  1  0
  6  7  2  0
  5  8  2  0
  8  9  1  0
  9 10  1  0
 10 11  2  0
 11 12  1  0
 12 13  1  0
 12 14  2  0
 14 15  1  0
 15 16  1  0
 15 17  2  0
  8 18  1  0
 18 19  1  0
 19 20  1  0
 18 21  2  0
 21  3  1  0
 17 10  1  0
M  END
>  <original ID>  (460) 
LKHIISSVEOAUKT-UHFFFAOYSA-N

>  <generation_date>  (460) 
None

>  <alias>  (460) 
None

>  <original SMILES>  (460) 
COc1cc(C=O)c(Nc2cc(F)cc(F)c2)c(OC)c1

>  <HIPPO ID>  (460) 
108485

>  <tags>  (460) 
[]

>  <ref_pdb>  (460) 
c0270a

>  <method>  (460) 
None

>  <ref_url>  (460) 
None

>  <inchikey>  (460) 
LKHIISSVEOAUKT-UHFFFAOYSA-N

>  <submitter_email>  (460) 
None

>  <ref_mols>  (460) 
c0692a,c1116a

>  <submitter_name>  (460) 
None

$$$$
YKQSOKUPRWWPJP-UHFFFAOYSA-N
     RDKit          3D

 21 22  0  0  0  0  0  0  0  0999 V2000
   22.6735   11.9494   11.8331 C   0  0  0  0  0  0  0  0  0  0  0  0
   21.7459   13.0189   12.0534 O   0  0  0  0  0  0  0  0  0  0  0  0
   20.4316   12.7422   11.8098 C   0  0  0  0  0  0  0  0  0  0  0  0
   19.9990   11.7153   11.0003 C   0  0  0  0  0  0  0  0  0  0  0  0
   18.6234   11.4406   10.8962 C   0  0  0  0  0  0  0  0  0  0  0  0
   18.3421   10.3131   10.0525 C   0  0  0  0  0  0  0  0  0  0  0  0
   17.5690    9.4368   10.3878 O   0  0  0  0  0  0  0  0  0  0  0  0
   17.6247   12.1635   11.5422 C   0  0  0  0  0  0  0  0  0  0  0  0
   16.2087   11.9523   11.3864 N   0  0  0  0  0  0  0  0  0  0  0  0
   15.5162   10.7020   11.2440 C   0  0  0  0  0  0  0  0  0  0  0  0
   15.1296   10.2041    9.9766 C   0  0  0  0  0  0  0  0  0  0  0  0
   15.3213   10.9295    8.8718 F   0  0  0  0  0  0  0  0  0  0  0  0
   14.6239    8.9156    9.7979 C   0  0  0  0  0  0  0  0  0  0  0  0
   14.4983    8.0739   10.8930 C   0  0  0  0  0  0  0  0  0  0  0  0
   14.8169    8.5524   12.1668 C   0  0  0  0  0  0  0  0  0  0  0  0
   15.2951    9.8622   12.3522 C   0  0  0  0  0  0  0  0  0  0  0  0
   15.5932   10.4069   14.0266 S   0  0  0  0  0  0  0  0  0  0  0  0
   18.0892   13.2740   12.2739 C   0  0  0  0  0  0  0  0  0  0  0  0
   17.1188   14.1212   12.7430 O   0  0  0  0  0  0  0  0  0  0  0  0
   17.1948   14.4440   14.1221 C   0  0  0  0  0  0  0  0  0  0  0  0
   19.4679   13.5576   12.4097 C   0  0  0  0  0  0  0  0  0  0  0  0
  1  2  1  0
  2  3  1  0
  3  4  2  0
  4  5  1  0
  5  6  1  0
  6  7  2  0
  5  8  2  0
  8  9  1  0
  9 10  1  0
 10 11  2  0
 11 12  1  0
 11 13  1  0
 13 14  2  0
 14 15  1  0
 15 16  2  0
 16 17  1  0
  8 18  1  0
 18 19  1  0
 19 20  1  0
 18 21  2  0
 21  3  1  0
 16 10  1  0
M  END
>  <original ID>  (461) 
YKQSOKUPRWWPJP-UHFFFAOYSA-N

>  <generation_date>  (461) 
None

>  <alias>  (461) 
None

>  <original SMILES>  (461) 
COc1cc(C=O)c(Nc2c(F)cccc2S)c(OC)c1

>  <HIPPO ID>  (461) 
108489

>  <tags>  (461) 
[]

>  <ref_pdb>  (461) 
c0270a

>  <method>  (461) 
None

>  <ref_url>  (461) 
None

>  <inchikey>  (461) 
YKQSOKUPRWWPJP-UHFFFAOYSA-N

>  <submitter_email>  (461) 
None

>  <ref_mols>  (461) 
c0692a,c1116a

>  <submitter_name>  (461) 
None

$$$$
XHSGMSDDIPRFFL-UHFFFAOYSA-N
     RDKit          3D

 21 22  0  0  0  0  0  0  0  0999 V2000
   13.0280    6.0905   10.5182 C   0  0  0  0  0  0  0  0  0  0  0  0
   13.5589    6.6753   11.7019 O   0  0  0  0  0  0  0  0  0  0  0  0
   14.4611    7.6848   11.5292 C   0  0  0  0  0  0  0  0  0  0  0  0
   14.8977    8.1484   10.3048 C   0  0  0  0  0  0  0  0  0  0  0  0
   15.6460    9.3193   10.2629 C   0  0  0  0  0  0  0  0  0  0  0  0
   15.8551    9.8475    8.9472 C   0  0  0  0  0  0  0  0  0  0  0  0
   15.2682   10.8881    8.6986 O   0  0  0  0  0  0  0  0  0  0  0  0
   15.9865   10.0673   11.3942 C   0  0  0  0  0  0  0  0  0  0  0  0
   16.5817   11.3587   11.3271 N   0  0  0  0  0  0  0  0  0  0  0  0
   17.9632   11.6842   11.3649 C   0  0  0  0  0  0  0  0  0  0  0  0
   18.9003   10.9955   10.5970 C   0  0  0  0  0  0  0  0  0  0  0  0
   20.2600   11.3352   10.6202 C   0  0  0  0  0  0  0  0  0  0  0  0
   20.6880   12.4063   11.3879 C   0  0  0  0  0  0  0  0  0  0  0  0
   22.0069   12.7309   11.4662 O   0  0  0  0  0  0  0  0  0  0  0  0
   19.7703   13.1678   12.0977 C   0  0  0  0  0  0  0  0  0  0  0  0
   18.4184   12.8143   12.0688 C   0  0  0  0  0  0  0  0  0  0  0  0
   17.5554   13.5508   12.7863 F   0  0  0  0  0  0  0  0  0  0  0  0
   15.6265    9.5154   12.6215 C   0  0  0  0  0  0  0  0  0  0  0  0
   15.9863   10.1375   13.7861 O   0  0  0  0  0  0  0  0  0  0  0  0
   14.9622   11.0423   14.1950 C   0  0  0  0  0  0  0  0  0  0  0  0
   14.8840    8.3308   12.6933 C   0  0  0  0  0  0  0  0  0  0  0  0
  1  2  1  0
  2  3  1  0
  3  4  2  0
  4  5  1  0
  5  6  1  0
  6  7  2  0
  5  8  2  0
  8  9  1  0
  9 10  1  0
 10 11  2  0
 11 12  1  0
 12 13  2  0
 13 14  1  0
 13 15  1  0
 15 16  2  0
 16 17  1  0
  8 18  1  0
 18 19  1  0
 19 20  1  0
 18 21  2  0
 21  3  1  0
 16 10  1  0
M  END
>  <original ID>  (462) 
XHSGMSDDIPRFFL-UHFFFAOYSA-N

>  <generation_date>  (462) 
None

>  <alias>  (462) 
None

>  <original SMILES>  (462) 
COc1cc(C=O)c(Nc2ccc(O)cc2F)c(OC)c1

>  <HIPPO ID>  (462) 
108519

>  <tags>  (462) 
[]

>  <ref_pdb>  (462) 
c0270a

>  <method>  (462) 
None

>  <ref_url>  (462) 
None

>  <inchikey>  (462) 
XHSGMSDDIPRFFL-UHFFFAOYSA-N

>  <submitter_email>  (462) 
None

>  <ref_mols>  (462) 
c0692a,c1116a

>  <submitter_name>  (462) 
None

$$$$
JAKPGBTZWBRPDD-UHFFFAOYSA-N
     RDKit          3D

 21 22  0  0  0  0  0  0  0  0999 V2000
   22.9248   12.5561   10.8342 C   0  0  0  0  0  0  0  0  0  0  0  0
   22.0165   13.1633   11.7546 O   0  0  0  0  0  0  0  0  0  0  0  0
   20.6988   12.8270   11.6476 C   0  0  0  0  0  0  0  0  0  0  0  0
   20.2033   11.7954   10.8819 C   0  0  0  0  0  0  0  0  0  0  0  0
   18.8212   11.5232   10.8768 C   0  0  0  0  0  0  0  0  0  0  0  0
   18.4840   10.3760   10.0724 C   0  0  0  0  0  0  0  0  0  0  0  0
   17.6865    9.5308   10.4305 O   0  0  0  0  0  0  0  0  0  0  0  0
   17.8830   12.2436   11.6134 C   0  0  0  0  0  0  0  0  0  0  0  0
   16.4532   12.0976   11.5343 N   0  0  0  0  0  0  0  0  0  0  0  0
   15.6858   10.9204   11.2855 C   0  0  0  0  0  0  0  0  0  0  0  0
   15.3403   10.4994    9.9857 C   0  0  0  0  0  0  0  0  0  0  0  0
   14.7610    9.2448    9.7424 C   0  0  0  0  0  0  0  0  0  0  0  0
   14.5036    8.3927   10.8075 C   0  0  0  0  0  0  0  0  0  0  0  0
   14.7752    8.8306   12.1013 C   0  0  0  0  0  0  0  0  0  0  0  0
   14.3761    8.0832   13.1393 F   0  0  0  0  0  0  0  0  0  0  0  0
   15.3644   10.0672   12.3391 C   0  0  0  0  0  0  0  0  0  0  0  0
   15.6463   10.4417   13.5957 F   0  0  0  0  0  0  0  0  0  0  0  0
   18.4135   13.3071   12.3798 C   0  0  0  0  0  0  0  0  0  0  0  0
   17.4848   13.9894   13.1314 O   0  0  0  0  0  0  0  0  0  0  0  0
   17.9218   15.1951   13.7461 C   0  0  0  0  0  0  0  0  0  0  0  0
   19.7991   13.5785   12.4029 C   0  0  0  0  0  0  0  0  0  0  0  0
  1  2  1  0
  2  3  1  0
  3  4  2  0
  4  5  1  0
  5  6  1  0
  6  7  2  0
  5  8  2  0
  8  9  1  0
  9 10  1  0
 10 11  2  0
 11 12  1  0
 12 13  2  0
 13 14  1  0
 14 15  1  0
 14 16  2  0
 16 17  1  0
  8 18  1  0
 18 19  1  0
 19 20  1  0
 18 21  2  0
 21  3  1  0
 16 10  1  0
M  END
>  <original ID>  (463) 
JAKPGBTZWBRPDD-UHFFFAOYSA-N

>  <generation_date>  (463) 
None

>  <alias>  (463) 
None

>  <original SMILES>  (463) 
COc1cc(C=O)c(Nc2cccc(F)c2F)c(OC)c1

>  <HIPPO ID>  (463) 
108520

>  <tags>  (463) 
[]

>  <ref_pdb>  (463) 
c0270a

>  <method>  (463) 
None

>  <ref_url>  (463) 
None

>  <inchikey>  (463) 
JAKPGBTZWBRPDD-UHFFFAOYSA-N

>  <submitter_email>  (463) 
None

>  <ref_mols>  (463) 
c0692a,c1116a

>  <submitter_name>  (463) 
None

$$$$
APGNVNXWLGARHA-UHFFFAOYSA-N
     RDKit          3D

 21 22  0  0  0  0  0  0  0  0999 V2000
   22.7045   12.0171   12.6726 C   0  0  0  0  0  0  0  0  0  0  0  0
   22.0509   13.0130   11.8801 O   0  0  0  0  0  0  0  0  0  0  0  0
   20.7113   12.7786   11.7857 C   0  0  0  0  0  0  0  0  0  0  0  0
   20.2418   11.7874   10.9545 C   0  0  0  0  0  0  0  0  0  0  0  0
   18.8609   11.5368   10.8930 C   0  0  0  0  0  0  0  0  0  0  0  0
   18.5375   10.4016   10.0684 C   0  0  0  0  0  0  0  0  0  0  0  0
   17.7157    9.5691   10.4006 O   0  0  0  0  0  0  0  0  0  0  0  0
   17.9092   12.2644   11.6100 C   0  0  0  0  0  0  0  0  0  0  0  0
   16.4782   12.1240   11.4996 N   0  0  0  0  0  0  0  0  0  0  0  0
   15.7085   10.9360   11.2889 C   0  0  0  0  0  0  0  0  0  0  0  0
   15.3617   10.5068    9.9894 C   0  0  0  0  0  0  0  0  0  0  0  0
   14.7812    9.2545    9.7476 C   0  0  0  0  0  0  0  0  0  0  0  0
   14.5188    8.4103   10.8148 C   0  0  0  0  0  0  0  0  0  0  0  0
   14.7802    8.8553   12.1094 C   0  0  0  0  0  0  0  0  0  0  0  0
   14.3613    8.1002   13.1360 F   0  0  0  0  0  0  0  0  0  0  0  0
   15.3713   10.0958   12.3549 C   0  0  0  0  0  0  0  0  0  0  0  0
   15.6809   10.5847   13.9808 Cl  0  0  0  0  0  0  0  0  0  0  0  0
   18.4245   13.3317   12.3876 C   0  0  0  0  0  0  0  0  0  0  0  0
   17.4757   14.0443   13.0842 O   0  0  0  0  0  0  0  0  0  0  0  0
   17.9054   15.2700   13.6652 C   0  0  0  0  0  0  0  0  0  0  0  0
   19.8105   13.5777   12.4773 C   0  0  0  0  0  0  0  0  0  0  0  0
  1  2  1  0
  2  3  1  0
  3  4  2  0
  4  5  1  0
  5  6  1  0
  6  7  2  0
  5  8  2  0
  8  9  1  0
  9 10  1  0
 10 11  2  0
 11 12  1  0
 12 13  2  0
 13 14  1  0
 14 15  1  0
 14 16  2  0
 16 17  1  0
  8 18  1  0
 18 19  1  0
 19 20  1  0
 18 21  2  0
 21  3  1  0
 16 10  1  0
M  END
>  <original ID>  (464) 
APGNVNXWLGARHA-UHFFFAOYSA-N

>  <generation_date>  (464) 
None

>  <alias>  (464) 
None

>  <original SMILES>  (464) 
COc1cc(C=O)c(Nc2cccc(F)c2Cl)c(OC)c1

>  <HIPPO ID>  (464) 
108524

>  <tags>  (464) 
[]

>  <ref_pdb>  (464) 
c0270a

>  <method>  (464) 
None

>  <ref_url>  (464) 
None

>  <inchikey>  (464) 
APGNVNXWLGARHA-UHFFFAOYSA-N

>  <submitter_email>  (464) 
None

>  <ref_mols>  (464) 
c0692a,c1116a

>  <submitter_name>  (464) 
None

$$$$
ZCHJOYMTXJMYFL-UHFFFAOYSA-N
     RDKit          3D

 21 22  0  0  0  0  0  0  0  0999 V2000
   15.1365   11.2953   14.2196 C   0  0  0  0  0  0  0  0  0  0  0  0
   16.2548   10.6655   13.5900 O   0  0  0  0  0  0  0  0  0  0  0  0
   15.8190    9.8182   12.6063 C   0  0  0  0  0  0  0  0  0  0  0  0
   15.1805    8.6291   12.9911 C   0  0  0  0  0  0  0  0  0  0  0  0
   14.6821    7.7513   12.0394 C   0  0  0  0  0  0  0  0  0  0  0  0
   14.7955    8.0812   10.7032 C   0  0  0  0  0  0  0  0  0  0  0  0
   15.4378    9.2751   10.3151 C   0  0  0  0  0  0  0  0  0  0  0  0
   15.4738    9.5662    8.8573 C   0  0  0  0  0  0  0  0  0  0  0  0
   16.6435    9.1950    8.3121 F   0  0  0  0  0  0  0  0  0  0  0  0
   14.4922    8.9219    8.1801 F   0  0  0  0  0  0  0  0  0  0  0  0
   15.2956   10.8822    8.5840 F   0  0  0  0  0  0  0  0  0  0  0  0
   16.0361   10.1357   11.2597 C   0  0  0  0  0  0  0  0  0  0  0  0
   16.7181   11.3278   10.8533 N   0  0  0  0  0  0  0  0  0  0  0  0
   18.0554   11.7110   11.1979 C   0  0  0  0  0  0  0  0  0  0  0  0
   19.1086   11.0391   10.5598 C   0  0  0  0  0  0  0  0  0  0  0  0
   20.4437   11.3940   10.7623 C   0  0  0  0  0  0  0  0  0  0  0  0
   20.7419   12.4480   11.6055 C   0  0  0  0  0  0  0  0  0  0  0  0
   22.0234   12.7615   11.8264 F   0  0  0  0  0  0  0  0  0  0  0  0
   19.7273   13.1692   12.2241 C   0  0  0  0  0  0  0  0  0  0  0  0
   18.3858   12.8053   12.0214 C   0  0  0  0  0  0  0  0  0  0  0  0
   17.1851   13.7651   12.8051 Cl  0  0  0  0  0  0  0  0  0  0  0  0
  1  2  1  0
  2  3  1  0
  3  4  2  0
  4  5  1  0
  5  6  2  0
  6  7  1  0
  7  8  1  0
  8  9  1  0
  8 10  1  0
  8 11  1  0
  7 12  2  0
 12 13  1  0
 13 14  1  0
 14 15  2  0
 15 16  1  0
 16 17  2  0
 17 18  1  0
 17 19  1  0
 19 20  2  0
 20 21  1  0
 12  3  1  0
 20 14  1  0
M  END
>  <original ID>  (465) 
ZCHJOYMTXJMYFL-UHFFFAOYSA-N

>  <generation_date>  (465) 
None

>  <alias>  (465) 
None

>  <original SMILES>  (465) 
COc1cccc(C(F)(F)F)c1Nc1ccc(F)cc1Cl

>  <HIPPO ID>  (465) 
108544

>  <tags>  (465) 
[]

>  <ref_pdb>  (465) 
c0270a

>  <method>  (465) 
None

>  <ref_url>  (465) 
None

>  <inchikey>  (465) 
ZCHJOYMTXJMYFL-UHFFFAOYSA-N

>  <submitter_email>  (465) 
None

>  <ref_mols>  (465) 
c0692a,c1116a

>  <submitter_name>  (465) 
None

$$$$
OQURULVYNZUHPQ-UHFFFAOYSA-N
     RDKit          3D

 21 22  0  0  0  0  0  0  0  0999 V2000
   15.0296   11.1896   14.2248 C   0  0  0  0  0  0  0  0  0  0  0  0
   16.1601   10.5395   13.6443 O   0  0  0  0  0  0  0  0  0  0  0  0
   15.7453    9.7190   12.6284 C   0  0  0  0  0  0  0  0  0  0  0  0
   15.1383    8.5010   12.9632 C   0  0  0  0  0  0  0  0  0  0  0  0
   14.6613    7.6527   11.9723 C   0  0  0  0  0  0  0  0  0  0  0  0
   14.7750    8.0348   10.6483 C   0  0  0  0  0  0  0  0  0  0  0  0
   15.3885    9.2575   10.3113 C   0  0  0  0  0  0  0  0  0  0  0  0
   15.4421    9.6046    8.8661 C   0  0  0  0  0  0  0  0  0  0  0  0
   16.5583    9.1311    8.2878 F   0  0  0  0  0  0  0  0  0  0  0  0
   15.4048   10.9418    8.6551 F   0  0  0  0  0  0  0  0  0  0  0  0
   14.3856    9.1033    8.1771 F   0  0  0  0  0  0  0  0  0  0  0  0
   15.9442   10.0991   11.2964 C   0  0  0  0  0  0  0  0  0  0  0  0
   16.5754   11.3374   10.9576 N   0  0  0  0  0  0  0  0  0  0  0  0
   17.9255   11.7044   11.2480 C   0  0  0  0  0  0  0  0  0  0  0  0
   18.9529   11.0136   10.5935 C   0  0  0  0  0  0  0  0  0  0  0  0
   20.2940   11.3638   10.7478 C   0  0  0  0  0  0  0  0  0  0  0  0
   20.6256   12.4275   11.5688 C   0  0  0  0  0  0  0  0  0  0  0  0
   22.4447   12.8188   11.8625 Br  0  0  0  0  0  0  0  0  0  0  0  0
   19.6219   13.1722   12.1894 C   0  0  0  0  0  0  0  0  0  0  0  0
   18.2602   12.8345   12.0178 C   0  0  0  0  0  0  0  0  0  0  0  0
   17.2253   13.6757   12.7067 C   0  0  0  0  0  0  0  0  0  0  0  0
  1  2  1  0
  2  3  1  0
  3  4  2  0
  4  5  1  0
  5  6  2  0
  6  7  1  0
  7  8  1  0
  8  9  1  0
  8 10  1  0
  8 11  1  0
  7 12  2  0
 12 13  1  0
 13 14  1  0
 14 15  2  0
 15 16  1  0
 16 17  2  0
 17 18  1  0
 17 19  1  0
 19 20  2  0
 20 21  1  0
 12  3  1  0
 20 14  1  0
M  END
>  <original ID>  (466) 
OQURULVYNZUHPQ-UHFFFAOYSA-N

>  <generation_date>  (466) 
None

>  <alias>  (466) 
None

>  <original SMILES>  (466) 
COc1cccc(C(F)(F)F)c1Nc1ccc(Br)cc1C

>  <HIPPO ID>  (466) 
108547

>  <tags>  (466) 
[]

>  <ref_pdb>  (466) 
c0270a

>  <method>  (466) 
None

>  <ref_url>  (466) 
None

>  <inchikey>  (466) 
OQURULVYNZUHPQ-UHFFFAOYSA-N

>  <submitter_email>  (466) 
None

>  <ref_mols>  (466) 
c0692a,c1116a

>  <submitter_name>  (466) 
None

$$$$
FOUKKUNRNPTHFG-UHFFFAOYSA-N
     RDKit          3D

 21 22  0  0  0  0  0  0  0  0999 V2000
   15.0909   11.2796   14.2654 C   0  0  0  0  0  0  0  0  0  0  0  0
   16.2248   10.6827   13.6307 O   0  0  0  0  0  0  0  0  0  0  0  0
   15.8090    9.8370   12.6369 C   0  0  0  0  0  0  0  0  0  0  0  0
   15.1808    8.6374   13.0080 C   0  0  0  0  0  0  0  0  0  0  0  0
   14.6993    7.7598   12.0475 C   0  0  0  0  0  0  0  0  0  0  0  0
   14.8203    8.0988   10.7146 C   0  0  0  0  0  0  0  0  0  0  0  0
   15.4534    9.3020   10.3379 C   0  0  0  0  0  0  0  0  0  0  0  0
   15.4890    9.5937    8.8771 C   0  0  0  0  0  0  0  0  0  0  0  0
   15.3457   10.9125    8.6048 F   0  0  0  0  0  0  0  0  0  0  0  0
   16.6352    9.1797    8.3153 F   0  0  0  0  0  0  0  0  0  0  0  0
   14.4794    8.9799    8.2067 F   0  0  0  0  0  0  0  0  0  0  0  0
   16.0391   10.1634   11.2947 C   0  0  0  0  0  0  0  0  0  0  0  0
   16.6904   11.3789   10.8981 N   0  0  0  0  0  0  0  0  0  0  0  0
   17.9872   11.8479   11.3095 C   0  0  0  0  0  0  0  0  0  0  0  0
   19.1126   11.2619   10.7156 C   0  0  0  0  0  0  0  0  0  0  0  0
   18.9010   10.2885    9.8339 F   0  0  0  0  0  0  0  0  0  0  0  0
   20.4195   11.6887   10.9339 C   0  0  0  0  0  0  0  0  0  0  0  0
   20.6374   12.7650   11.7773 C   0  0  0  0  0  0  0  0  0  0  0  0
   19.5434   13.3932   12.3769 C   0  0  0  0  0  0  0  0  0  0  0  0
   18.2281   12.9421   12.1483 C   0  0  0  0  0  0  0  0  0  0  0  0
   16.9612   13.8363   12.8965 Cl  0  0  0  0  0  0  0  0  0  0  0  0
  1  2  1  0
  2  3  1  0
  3  4  2  0
  4  5  1  0
  5  6  2  0
  6  7  1  0
  7  8  1  0
  8  9  1  0
  8 10  1  0
  8 11  1  0
  7 12  2  0
 12 13  1  0
 13 14  1  0
 14 15  2  0
 15 16  1  0
 15 17  1  0
 17 18  2  0
 18 19  1  0
 19 20  2  0
 20 21  1  0
 12  3  1  0
 20 14  1  0
M  END
>  <original ID>  (467) 
FOUKKUNRNPTHFG-UHFFFAOYSA-N

>  <generation_date>  (467) 
None

>  <alias>  (467) 
None

>  <original SMILES>  (467) 
COc1cccc(C(F)(F)F)c1Nc1c(F)cccc1Cl

>  <HIPPO ID>  (467) 
108548

>  <tags>  (467) 
[]

>  <ref_pdb>  (467) 
c0270a

>  <method>  (467) 
None

>  <ref_url>  (467) 
None

>  <inchikey>  (467) 
FOUKKUNRNPTHFG-UHFFFAOYSA-N

>  <submitter_email>  (467) 
None

>  <ref_mols>  (467) 
c0692a,c1116a

>  <submitter_name>  (467) 
None

$$$$
