c2182a
     RDKit          3D

 25 27  0  0  0  0  0  0  0  0999 V2000
    8.2730    4.7800   14.3240 Br  0  0  0  0  0  0  0  0  0  0  0  0
   10.1060    5.1450   13.9850 C   0  0  0  0  0  0  0  0  0  0  0  0
   10.5290    5.3530   12.6910 C   0  0  0  0  0  0  0  0  0  0  0  0
   11.8700    5.5960   12.4540 C   0  0  0  0  0  0  0  0  0  0  0  0
   10.9890    5.1860   15.0390 C   0  0  0  0  0  0  0  0  0  0  0  0
   12.3250    5.4290   14.7860 C   0  0  0  0  0  0  0  0  0  0  0  0
   12.7870    5.6290   13.4940 C   0  0  0  0  0  0  0  0  0  0  0  0
   14.2700    5.7960   13.2270 C   0  0  1  0  0  0  0  0  0  0  0  0
   14.8800    4.4790   12.6890 C   0  0  1  0  0  0  0  0  0  0  0  0
   16.2230    4.7440   12.0460 C   0  0  0  0  0  0  0  0  0  0  0  0
   16.1480    4.8180   10.7610 O   0  0  0  0  0  0  0  0  0  0  0  0
   17.2490    4.8470   12.6680 O   0  0  0  0  0  0  0  0  0  0  0  0
   15.0250    3.4360   13.7930 C   0  0  0  0  0  0  0  0  0  0  0  0
   14.5960    6.9080   12.3340 N   0  0  0  0  0  0  0  0  0  0  0  0
   14.6310    8.1730   12.7690 C   0  0  0  0  0  0  0  0  0  0  0  0
   14.4420    8.4740   13.9400 O   0  0  0  0  0  0  0  0  0  0  0  0
   14.8420    9.2210   11.7150 C   0  0  0  0  0  0  0  0  0  0  0  0
   14.7130   10.5960   11.9790 C   0  0  0  0  0  0  0  0  0  0  0  0
   14.5060   11.4460   13.1040 C   0  0  0  0  0  0  0  0  0  0  0  0
   14.4110   12.7120   12.6240 C   0  0  0  0  0  0  0  0  0  0  0  0
   14.5510   12.7150   11.2570 N   0  0  0  0  0  0  0  0  0  0  0  0
   14.7420   11.4250   10.8480 C   0  0  0  0  0  0  0  0  0  0  0  0
   14.9030   11.0160    9.5840 N   0  0  0  0  0  0  0  0  0  0  0  0
   15.0350    9.6920    9.4870 C   0  0  0  0  0  0  0  0  0  0  0  0
   15.0180    8.7780   10.4590 N   0  0  0  0  0  0  0  0  0  0  0  0
  2  1  1  0
  3  2  2  0
  4  3  1  0
  5  2  1  0
  6  5  2  0
  7  6  1  0
  7  4  2  0
  8  7  1  0
  9  8  1  0
 10  9  1  0
 11 10  2  0
 12 10  1  0
  9 13  1  1
  8 14  1  6
 15 14  1  0
 16 15  2  0
 17 15  1  0
 18 17  2  0
 19 18  1  0
 20 19  2  0
 21 20  1  0
 22 18  1  0
 22 21  1  0
 23 22  2  0
 24 23  1  0
 25 24  2  0
 25 17  1  0
M  END
>  <id>  (1) 
6176

>  <inchikey>  (1) 
BBYUVETWVSEHPK-TVQRCGJNSA-N

>  <alias>  (1) 
c2182a

>  <smiles>  (1) 
C[C@H](C(=O)O)[C@@H](NC(=O)c1ncnc2[nH]ccc12)c1ccc(Br)cc1

>  <path>  (1) 
/opt/xchem-fragalysis-2/maxwin/CHIKV_FFF/aligned_files/c2182a/c2182a_hippo.pdb

>  <distance_score>  (1) 
None

>  <energy_score>  (1) 
None

>  <compound>  (1) 
BBYUVETWVSEHPK-UHFFFAOYSA-N

>  <compound_id>  (1) 
4413

>  <target>  (1) 
CHIKV_Mac

$$$$
