MMXSHBZOILNLPJ-UHFFFAOYSA-N
     RDKit          3D

 14 15  0  0  0  0  0  0  0  0999 V2000
   13.4627   13.2134   13.8958 C   0  0  0  0  0  0  0  0  0  0  0  0
   14.3058   13.0535   12.6365 C   0  0  0  0  0  0  0  0  0  0  0  0
   15.2394   14.2519   12.7030 C   0  0  0  0  0  0  0  0  0  0  0  0
   13.5096   13.1566   11.3159 C   0  0  0  0  0  0  0  0  0  0  0  0
   14.8463   11.6333   12.6262 C   0  0  0  0  0  0  0  0  0  0  0  0
   15.1265   10.9216   13.7809 C   0  0  0  0  0  0  0  0  0  0  0  0
   15.1493    9.5760   13.8151 N   0  0  0  0  0  0  0  0  0  0  0  0
   14.9543    8.9451   12.6464 C   0  0  0  0  0  0  0  0  0  0  0  0
   14.8571    7.5637   12.6234 C   0  0  0  0  0  0  0  0  0  0  0  0
   14.6444    6.8849   11.4266 C   0  0  0  0  0  0  0  0  0  0  0  0
   14.5565    7.5960   10.2357 C   0  0  0  0  0  0  0  0  0  0  0  0
   14.7094    8.9777   10.2306 C   0  0  0  0  0  0  0  0  0  0  0  0
   14.8668    9.6613   11.4274 C   0  0  0  0  0  0  0  0  0  0  0  0
   14.8664   10.9978   11.4272 N   0  0  0  0  0  0  0  0  0  0  0  0
  1  2  1  0
  2  3  1  0
  2  4  1  0
  2  5  1  0
  5  6  2  0
  6  7  1  0
  7  8  2  0
  8  9  1  0
  9 10  2  0
 10 11  1  0
 11 12  2  0
 12 13  1  0
 13 14  2  0
 14  5  1  0
 13  8  1  0
M  END
>  <id>  (1) 
6276

>  <inchikey>  (1) 
MMXSHBZOILNLPJ-UHFFFAOYSA-N

>  <alias>  (1) 
None

>  <smiles>  (1) 
CC(C)(C)c1cnc2ccccc2n1

>  <path>  (1) 
/opt/xchem-fragalysis-2/kfieseler/CHIKV-Mac/MMXSHBZOILNLPJ-UHFFFAOYSA-N/output/MMXSHBZOILNLPJ-UHFFFAOYSA-N-asecS4-scaffold-A/MMXSHBZOILNLPJ-UHFFFAOYSA-N-asecS4-scaffold-A.minimised.mol

>  <compound>  (1) 
MMXSHBZOILNLPJ-UHFFFAOYSA-N

>  <target>  (1) 
CHIKV_Mac

>  <tags>  (1) 
['Syndirella base']

>  <reference>  (1) 
P5809

>  <exports>  (1) 
['/opt/xchem-fragalysis-2/maxwin/CHIKV_HIPPO/hippo_prod/CHIKV_prod11_recipes/Recipe_1G8PPKY_poses.sdf']

$$$$
