WXVLITNXXROEMR-UHFFFAOYSA-N
     RDKit          3D

 22 24  0  0  0  0  0  0  0  0999 V2000
   13.7778    8.8513    8.9663 C   0  0  0  0  0  0  0  0  0  0  0  0
   14.6194    8.2823   10.0818 C   0  0  0  0  0  0  0  0  0  0  0  0
   14.4339    6.8461   10.3992 C   0  0  0  0  0  0  0  0  0  0  0  0
   15.2393    6.1041   11.1185 N   0  0  0  0  0  0  0  0  0  0  0  0
   14.6572    4.8692   11.0724 C   0  0  0  0  0  0  0  0  0  0  0  0
   15.1902    3.8184   11.7929 N   0  0  0  0  0  0  0  0  0  0  0  0
   16.4342    3.9629   12.3719 C   0  0  0  0  0  0  0  0  0  0  0  0
   17.3439    4.6301   11.8784 O   0  0  0  0  0  0  0  0  0  0  0  0
   16.7302    3.3434   13.6835 C   0  0  0  0  0  0  0  0  0  0  0  0
   17.7780    3.8876   14.4250 C   0  0  0  0  0  0  0  0  0  0  0  0
   18.0524    3.3451   15.6617 C   0  0  0  0  0  0  0  0  0  0  0  0
   17.3807    2.3053   16.1913 N   0  0  0  0  0  0  0  0  0  0  0  0
   16.3935    1.7605   15.4742 C   0  0  0  0  0  0  0  0  0  0  0  0
   15.7662    0.6009   15.8912 N   0  0  0  0  0  0  0  0  0  0  0  0
   15.8909   -0.0425   17.1901 C   0  0  0  0  0  0  0  0  0  0  0  0
   17.2639   -0.5864   17.5667 C   0  0  0  0  0  0  0  0  0  0  0  0
   17.1248   -0.6913   19.0584 C   0  0  0  0  0  0  0  0  0  0  0  0
   16.1028    0.0478   19.5128 C   0  0  0  0  0  0  0  0  0  0  0  0
   15.3977    0.7588   18.3951 C   0  0  0  0  0  0  0  0  0  0  0  0
   16.0240    2.2818   14.2271 C   0  0  0  0  0  0  0  0  0  0  0  0
   13.5001    4.8352   10.3995 N   0  0  0  0  0  0  0  0  0  0  0  0
   13.3571    6.1548    9.9279 O   0  0  0  0  0  0  0  0  0  0  0  0
  1  2  1  0
  2  3  1  0
  3  4  2  0
  4  5  1  0
  5  6  1  0
  6  7  1  0
  7  8  2  0
  7  9  1  0
  9 10  2  0
 10 11  1  0
 11 12  2  0
 12 13  1  0
 13 14  1  0
 14 15  1  0
 15 16  1  0
 16 17  1  0
 17 18  2  0
 18 19  1  0
 13 20  2  0
  5 21  2  0
 21 22  1  0
 22  3  1  0
 20  9  1  0
 19 15  1  0
M  END
>  <id>  (1) 
6297

>  <inchikey>  (1) 
WXVLITNXXROEMR-UHFFFAOYSA-N

>  <alias>  (1) 
None

>  <smiles>  (1) 
CCc1nc(NC(=O)c2ccnc(NC3CC=CC3)c2)no1

>  <path>  (1) 
/opt/xchem-fragalysis-2/kfieseler/CHIKV-Mac/WXVLITNXXROEMR-UHFFFAOYSA-N/output/WXVLITNXXROEMR-UHFFFAOYSA-N-T7iaYY-scaffold-A/WXVLITNXXROEMR-UHFFFAOYSA-N-T7iaYY-scaffold-A.minimised.mol

>  <compound>  (1) 
WXVLITNXXROEMR-UHFFFAOYSA-N

>  <target>  (1) 
CHIKV_Mac

>  <tags>  (1) 
['Syndirella base']

>  <reference>  (1) 
P5809

>  <exports>  (1) 
['/opt/xchem-fragalysis-2/maxwin/CHIKV_HIPPO/hippo_prod/CHIKV_prod11_recipes/Recipe_1G8PPKY_poses.sdf']

$$$$
