c0997a
     RDKit          3D

 17 18  0  0  0  0  0  0  0  0999 V2000
   15.8790   -2.8120   20.0830 F   0  0  0  0  0  0  0  0  0  0  0  0
   16.7620   -2.5130   19.0980 C   0  0  0  0  0  0  0  0  0  0  0  0
   17.9760   -3.1430   19.0890 C   0  0  0  0  0  0  0  0  0  0  0  0
   18.8730   -2.8210   18.0850 C   0  0  0  0  0  0  0  0  0  0  0  0
   16.3990   -1.5920   18.1580 C   0  0  0  0  0  0  0  0  0  0  0  0
   17.2970   -1.2960   17.1520 C   0  0  0  0  0  0  0  0  0  0  0  0
   18.5460   -1.8980   17.1000 C   0  0  0  0  0  0  0  0  0  0  0  0
   19.4990   -1.6120   15.9640 C   0  0  0  0  0  0  0  0  0  0  0  0
   20.1690   -0.2050   15.8990 C   0  0  2  0  0  0  0  0  0  0  0  0
   19.2530    0.8790   15.3200 C   0  0  0  0  0  0  0  0  0  0  0  0
   18.1710    1.0810   16.0710 O   0  0  0  0  0  0  0  0  0  0  0  0
   17.6420    2.4280   16.0820 C   0  0  0  0  0  0  0  0  0  0  0  0
   19.4690    1.4870   14.3110 O   0  0  0  0  0  0  0  0  0  0  0  0
   21.4530   -0.3300   15.0370 C   0  0  0  0  0  0  0  0  0  0  0  0
   22.6190   -0.2360   16.0260 C   0  0  0  0  0  0  0  0  0  0  0  0
   22.0110   -0.4650   17.3420 N   0  0  0  0  0  0  0  0  0  0  0  0
   20.7400    0.2390   17.2640 C   0  0  0  0  0  0  0  0  0  0  0  0
 13 10  2  0
 11 10  1  0
 12 11  1  0
 10  9  1  0
  9  8  1  1
  8  7  1  0
  7  4  2  0
  4  3  1  0
  3  2  2  0
  2  1  1  0
  5  2  1  0
  6  5  2  0
  7  6  1  0
  9 17  1  0
 17 16  1  0
 16 15  1  0
 15 14  1  0
 14  9  1  0
M  END
>  <id>  (1) 
5789

>  <inchikey>  (1) 
WYCCPDWBKLUXRN-CYBMUJFWSA-N

>  <alias>  (1) 
c0997a

>  <smiles>  (1) 
COC(=O)[C@@]1(Cc2ccc(F)cc2)CCNC1

>  <path>  (1) 
/opt/xchem-fragalysis-2/maxwin/CHIKV_Mac_20240920/aligned_files/c0997a/c0997a_hippo.pdb

>  <compound>  (1) 
WYCCPDWBKLUXRN-UHFFFAOYSA-N

>  <target>  (1) 
CHIKV_Mac

>  <tags>  (1) 
['hits', '[Other] Trp148 site', '[Other] fragment screen']

>  <reference>  (1) 
None

>  <exports>  (1) 
['/opt/xchem-fragalysis-2/maxwin/CHIKV_HIPPO/web_resources/hit_poses.sdf', '/opt/xchem-fragalysis-2/maxwin/CHIKV_HIPPO/web/web_resources/hit_poses.sdf', '/opt/xchem-fragalysis-2/maxwin/CHIKV_HIPPO/web2/web_resources/hit_poses.sdf']

>  <observation_longname>  (1) 
nan

>  <ConformerSites alias>  (1) 
nan

>  <CanonSites alias>  (1) 
nan

>  <CrystalformSites alias>  (1) 
nan

>  <Quatassemblies alias>  (1) 
nan

>  <Crystalforms alias>  (1) 
nan

$$$$
c0997b
     RDKit          3D

 17 18  0  0  0  0  0  0  0  0999 V2000
   15.9220   -2.5130   19.8450 F   0  0  0  0  0  0  0  0  0  0  0  0
   16.9310   -2.3300   18.9660 C   0  0  0  0  0  0  0  0  0  0  0  0
   18.1730   -2.7960   19.2900 C   0  0  0  0  0  0  0  0  0  0  0  0
   19.2000   -2.6020   18.3840 C   0  0  0  0  0  0  0  0  0  0  0  0
   16.6640   -1.6840   17.7920 C   0  0  0  0  0  0  0  0  0  0  0  0
   17.7020   -1.4940   16.9010 C   0  0  0  0  0  0  0  0  0  0  0  0
   18.9810   -1.9550   17.1770 C   0  0  0  0  0  0  0  0  0  0  0  0
   20.0860   -1.8240   16.1580 C   0  0  0  0  0  0  0  0  0  0  0  0
   20.9000   -0.5020   16.2350 C   0  0  1  0  0  0  0  0  0  0  0  0
   20.0120    0.7360   16.1780 C   0  0  0  0  0  0  0  0  0  0  0  0
   19.3030    0.7880   15.0490 O   0  0  0  0  0  0  0  0  0  0  0  0
   18.5260    1.9940   14.8280 C   0  0  0  0  0  0  0  0  0  0  0  0
   19.9540    1.5720   17.0380 O   0  0  0  0  0  0  0  0  0  0  0  0
   21.8080   -0.4740   17.4780 C   0  0  0  0  0  0  0  0  0  0  0  0
   23.0460    0.3010   17.0170 C   0  0  0  0  0  0  0  0  0  0  0  0
   23.2410   -0.1010   15.6050 N   0  0  0  0  0  0  0  0  0  0  0  0
   21.9350   -0.5230   15.0860 C   0  0  0  0  0  0  0  0  0  0  0  0
 13 10  2  0
 11 10  1  0
 12 11  1  0
 10  9  1  0
  9  8  1  1
  8  7  1  0
  7  4  2  0
  4  3  1  0
  3  2  2  0
  2  1  1  0
  5  2  1  0
  6  5  2  0
  7  6  1  0
  9 17  1  0
 17 16  1  0
 16 15  1  0
 15 14  1  0
 14  9  1  0
M  END
>  <id>  (2) 
5790

>  <inchikey>  (2) 
WYCCPDWBKLUXRN-ZDUSSCGKSA-N

>  <alias>  (2) 
c0997b

>  <smiles>  (2) 
COC(=O)[C@]1(Cc2ccc(F)cc2)CCNC1

>  <path>  (2) 
/opt/xchem-fragalysis-2/maxwin/CHIKV_Mac_20240920/aligned_files/c0997b/c0997b_hippo.pdb

>  <compound>  (2) 
WYCCPDWBKLUXRN-UHFFFAOYSA-N

>  <target>  (2) 
CHIKV_Mac

>  <tags>  (2) 
['hits', '[Other] Trp148 site', '[Other] fragment screen']

>  <reference>  (2) 
None

>  <exports>  (2) 
['/opt/xchem-fragalysis-2/maxwin/CHIKV_HIPPO/web_resources/hit_poses.sdf', '/opt/xchem-fragalysis-2/maxwin/CHIKV_HIPPO/web/web_resources/hit_poses.sdf', '/opt/xchem-fragalysis-2/maxwin/CHIKV_HIPPO/web2/web_resources/hit_poses.sdf']

>  <observation_longname>  (2) 
nan

>  <ConformerSites alias>  (2) 
nan

>  <CanonSites alias>  (2) 
nan

>  <CrystalformSites alias>  (2) 
nan

>  <Quatassemblies alias>  (2) 
nan

>  <Crystalforms alias>  (2) 
nan

$$$$
c0969b
     RDKit          3D

 11 12  0  0  0  0  0  0  0  0999 V2000
   17.3850   14.0460   14.3120 O   0  0  0  0  0  0  0  0  0  0  0  0
   17.8220   14.5840   13.0760 C   0  0  0  0  0  0  0  0  0  0  0  0
   18.6600   13.6000   12.3080 C   0  0  0  0  0  0  0  0  0  0  0  0
   20.0470   13.7050   12.3060 C   0  0  0  0  0  0  0  0  0  0  0  0
   20.8320   12.8240   11.5770 C   0  0  0  0  0  0  0  0  0  0  0  0
   22.3220   12.6340   11.5190 C   0  0  0  0  0  0  0  0  0  0  0  0
   22.4480   11.4350   10.5770 C   0  0  0  0  0  0  0  0  0  0  0  0
   21.1180   11.1130   10.0820 O   0  0  0  0  0  0  0  0  0  0  0  0
   20.2180   11.8510   10.8160 C   0  0  0  0  0  0  0  0  0  0  0  0
   18.8400   11.6940   10.8110 C   0  0  0  0  0  0  0  0  0  0  0  0
   18.0750   12.5740   11.5640 C   0  0  0  0  0  0  0  0  0  0  0  0
  2  1  1  0
  3  2  1  0
  3 11  2  0
 11 10  1  0
 10  9  2  0
  9  8  1  0
  8  7  1  0
  7  6  1  0
  6  5  1  0
  9  5  1  0
  5  4  2  0
  4  3  1  0
M  END
>  <id>  (3) 
5791

>  <inchikey>  (3) 
XQDNBMXUZGAWSZ-UHFFFAOYSA-N

>  <alias>  (3) 
c0969b

>  <smiles>  (3) 
OCc1ccc2c(c1)CCO2

>  <path>  (3) 
/opt/xchem-fragalysis-2/maxwin/CHIKV_Mac_20240920/aligned_files/c0969b/c0969b_hippo.pdb

>  <compound>  (3) 
XQDNBMXUZGAWSZ-UHFFFAOYSA-N

>  <target>  (3) 
CHIKV_Mac

>  <tags>  (3) 
['hits', '[Other] Arg144 pocket', '[Other] fragment screen']

>  <reference>  (3) 
None

>  <exports>  (3) 
['/opt/xchem-fragalysis-2/maxwin/CHIKV_HIPPO/web_resources/hit_poses.sdf', '/opt/xchem-fragalysis-2/maxwin/CHIKV_HIPPO/web/web_resources/hit_poses.sdf', '/opt/xchem-fragalysis-2/maxwin/CHIKV_HIPPO/web2/web_resources/hit_poses.sdf']

>  <observation_longname>  (3) 
nan

>  <ConformerSites alias>  (3) 
nan

>  <CanonSites alias>  (3) 
nan

>  <CrystalformSites alias>  (3) 
nan

>  <Quatassemblies alias>  (3) 
nan

>  <Crystalforms alias>  (3) 
nan

$$$$
c0969c
     RDKit          3D

 11 12  0  0  0  0  0  0  0  0999 V2000
   15.5140    9.9270   15.8150 O   0  0  0  0  0  0  0  0  0  0  0  0
   15.1670   11.1870   15.2870 C   0  0  0  0  0  0  0  0  0  0  0  0
   14.9190   11.1350   13.8020 C   0  0  0  0  0  0  0  0  0  0  0  0
   15.2640   10.0110   13.0610 C   0  0  0  0  0  0  0  0  0  0  0  0
   15.1240    9.9950   11.6810 C   0  0  0  0  0  0  0  0  0  0  0  0
   15.4390    8.9420   10.6590 C   0  0  0  0  0  0  0  0  0  0  0  0
   15.2580    9.7190    9.3620 C   0  0  0  0  0  0  0  0  0  0  0  0
   14.5480   10.9520    9.6830 O   0  0  0  0  0  0  0  0  0  0  0  0
   14.6260   11.1120   11.0480 C   0  0  0  0  0  0  0  0  0  0  0  0
   14.2430   12.2340   11.7510 C   0  0  0  0  0  0  0  0  0  0  0  0
   14.3910   12.2330   13.1280 C   0  0  0  0  0  0  0  0  0  0  0  0
  2  1  1  0
  3  2  1  0
  3 11  2  0
 11 10  1  0
 10  9  2  0
  9  8  1  0
  8  7  1  0
  7  6  1  0
  6  5  1  0
  9  5  1  0
  5  4  2  0
  4  3  1  0
M  END
>  <id>  (4) 
5792

>  <inchikey>  (4) 
XQDNBMXUZGAWSZ-UHFFFAOYSA-N

>  <alias>  (4) 
c0969c

>  <smiles>  (4) 
OCc1ccc2c(c1)CCO2

>  <path>  (4) 
/opt/xchem-fragalysis-2/maxwin/CHIKV_Mac_20240920/aligned_files/c0969c/c0969c_hippo.pdb

>  <compound>  (4) 
XQDNBMXUZGAWSZ-UHFFFAOYSA-N

>  <target>  (4) 
CHIKV_Mac

>  <tags>  (4) 
['[Other] Adenine site', 'hits', '[Other] fragment screen']

>  <reference>  (4) 
None

>  <exports>  (4) 
['/opt/xchem-fragalysis-2/maxwin/CHIKV_HIPPO/web_resources/hit_poses.sdf', '/opt/xchem-fragalysis-2/maxwin/CHIKV_HIPPO/web/web_resources/hit_poses.sdf', '/opt/xchem-fragalysis-2/maxwin/CHIKV_HIPPO/web2/web_resources/hit_poses.sdf']

>  <observation_longname>  (4) 
nan

>  <ConformerSites alias>  (4) 
nan

>  <CanonSites alias>  (4) 
nan

>  <CrystalformSites alias>  (4) 
nan

>  <Quatassemblies alias>  (4) 
nan

>  <Crystalforms alias>  (4) 
nan

$$$$
c0969d
     RDKit          3D

 11 12  0  0  0  0  0  0  0  0999 V2000
   17.0650   14.7980   12.9760 O   0  0  0  0  0  0  0  0  0  0  0  0
   18.0510   13.9090   13.4530 C   0  0  0  0  0  0  0  0  0  0  0  0
   18.8420   13.2740   12.3420 C   0  0  0  0  0  0  0  0  0  0  0  0
   20.1550   13.6640   12.0990 C   0  0  0  0  0  0  0  0  0  0  0  0
   20.9370   12.9940   11.1690 C   0  0  0  0  0  0  0  0  0  0  0  0
   22.3260   13.2590   10.6580 C   0  0  0  0  0  0  0  0  0  0  0  0
   22.4820   12.1740    9.6050 C   0  0  0  0  0  0  0  0  0  0  0  0
   21.3230   11.2920    9.6930 O   0  0  0  0  0  0  0  0  0  0  0  0
   20.4020   11.9130   10.5000 C   0  0  0  0  0  0  0  0  0  0  0  0
   19.0910   11.5210   10.6870 C   0  0  0  0  0  0  0  0  0  0  0  0
   18.3190   12.2160   11.6020 C   0  0  0  0  0  0  0  0  0  0  0  0
  2  1  1  0
  3  2  1  0
  3 11  2  0
 11 10  1  0
 10  9  2  0
  9  8  1  0
  8  7  1  0
  7  6  1  0
  6  5  1  0
  9  5  1  0
  5  4  2  0
  4  3  1  0
M  END
>  <id>  (5) 
5793

>  <inchikey>  (5) 
XQDNBMXUZGAWSZ-UHFFFAOYSA-N

>  <alias>  (5) 
c0969d

>  <smiles>  (5) 
OCc1ccc2c(c1)CCO2

>  <path>  (5) 
/opt/xchem-fragalysis-2/maxwin/CHIKV_Mac_20240920/aligned_files/c0969d/c0969d_hippo.pdb

>  <compound>  (5) 
XQDNBMXUZGAWSZ-UHFFFAOYSA-N

>  <target>  (5) 
CHIKV_Mac

>  <tags>  (5) 
['hits', '[Other] Arg144 pocket', '[Other] fragment screen']

>  <reference>  (5) 
None

>  <exports>  (5) 
['/opt/xchem-fragalysis-2/maxwin/CHIKV_HIPPO/web_resources/hit_poses.sdf', '/opt/xchem-fragalysis-2/maxwin/CHIKV_HIPPO/web/web_resources/hit_poses.sdf', '/opt/xchem-fragalysis-2/maxwin/CHIKV_HIPPO/web2/web_resources/hit_poses.sdf']

>  <observation_longname>  (5) 
CHIKV_MacB-x0969_C_501_1_CHIKV_MacB-x2352+C+401+1

>  <ConformerSites alias>  (5) 
1a - c2352/C/401

>  <CanonSites alias>  (5) 
1 - c2352/C/401/1

>  <CrystalformSites alias>  (5) 
F1a - c0270/A/304

>  <Quatassemblies alias>  (5) 
A1 - monomer

>  <Crystalforms alias>  (5) 
F1 - P31-4fold-NCS

$$$$
c0969f
     RDKit          3D

 11 12  0  0  0  0  0  0  0  0999 V2000
   17.9850   14.2990   14.3840 O   0  0  0  0  0  0  0  0  0  0  0  0
   18.0750   14.6200   13.0040 C   0  0  0  0  0  0  0  0  0  0  0  0
   18.8690   13.6040   12.2210 C   0  0  0  0  0  0  0  0  0  0  0  0
   20.2270   13.7950   11.9920 C   0  0  0  0  0  0  0  0  0  0  0  0
   20.9530   12.9130   11.2020 C   0  0  0  0  0  0  0  0  0  0  0  0
   22.3930   12.9040   10.7780 C   0  0  0  0  0  0  0  0  0  0  0  0
   22.3860   11.8190    9.7200 C   0  0  0  0  0  0  0  0  0  0  0  0
   21.1510   11.0580    9.8750 O   0  0  0  0  0  0  0  0  0  0  0  0
   20.3090   11.8260   10.6470 C   0  0  0  0  0  0  0  0  0  0  0  0
   18.9600   11.5920   10.8640 C   0  0  0  0  0  0  0  0  0  0  0  0
   18.2540   12.4860   11.6570 C   0  0  0  0  0  0  0  0  0  0  0  0
  2  1  1  0
  3  2  1  0
  3 11  2  0
 11 10  1  0
 10  9  2  0
  9  8  1  0
  8  7  1  0
  7  6  1  0
  6  5  1  0
  9  5  1  0
  5  4  2  0
  4  3  1  0
M  END
>  <id>  (6) 
5794

>  <inchikey>  (6) 
XQDNBMXUZGAWSZ-UHFFFAOYSA-N

>  <alias>  (6) 
c0969f

>  <smiles>  (6) 
OCc1ccc2c(c1)CCO2

>  <path>  (6) 
/opt/xchem-fragalysis-2/maxwin/CHIKV_Mac_20240920/aligned_files/c0969f/c0969f_hippo.pdb

>  <compound>  (6) 
XQDNBMXUZGAWSZ-UHFFFAOYSA-N

>  <target>  (6) 
CHIKV_Mac

>  <tags>  (6) 
['hits', '[Other] Arg144 pocket', '[Other] fragment screen']

>  <reference>  (6) 
None

>  <exports>  (6) 
['/opt/xchem-fragalysis-2/maxwin/CHIKV_HIPPO/web_resources/hit_poses.sdf', '/opt/xchem-fragalysis-2/maxwin/CHIKV_HIPPO/web/web_resources/hit_poses.sdf', '/opt/xchem-fragalysis-2/maxwin/CHIKV_HIPPO/web2/web_resources/hit_poses.sdf']

>  <observation_longname>  (6) 
nan

>  <ConformerSites alias>  (6) 
nan

>  <CanonSites alias>  (6) 
nan

>  <CrystalformSites alias>  (6) 
nan

>  <Quatassemblies alias>  (6) 
nan

>  <Crystalforms alias>  (6) 
nan

$$$$
c0969a
     RDKit          3D

 11 12  0  0  0  0  0  0  0  0999 V2000
   16.4490   10.9830   15.5890 O   0  0  0  0  0  0  0  0  0  0  0  0
   15.0790   11.0630   15.2550 C   0  0  0  0  0  0  0  0  0  0  0  0
   14.8820   11.0830   13.7640 C   0  0  0  0  0  0  0  0  0  0  0  0
   15.2820   10.0020   12.9850 C   0  0  0  0  0  0  0  0  0  0  0  0
   15.1490   10.0230   11.6050 C   0  0  0  0  0  0  0  0  0  0  0  0
   15.4710    8.9920   10.5590 C   0  0  0  0  0  0  0  0  0  0  0  0
   15.1750    9.7540    9.2690 C   0  0  0  0  0  0  0  0  0  0  0  0
   14.5560   11.0280    9.6360 O   0  0  0  0  0  0  0  0  0  0  0  0
   14.6120   11.1400   11.0070 C   0  0  0  0  0  0  0  0  0  0  0  0
   14.1910   12.2310   11.7480 C   0  0  0  0  0  0  0  0  0  0  0  0
   14.3360   12.1930   13.1270 C   0  0  0  0  0  0  0  0  0  0  0  0
  2  1  1  0
  3  2  1  0
  3 11  2  0
 11 10  1  0
 10  9  2  0
  9  8  1  0
  8  7  1  0
  7  6  1  0
  6  5  1  0
  9  5  1  0
  5  4  2  0
  4  3  1  0
M  END
>  <id>  (7) 
5795

>  <inchikey>  (7) 
XQDNBMXUZGAWSZ-UHFFFAOYSA-N

>  <alias>  (7) 
c0969a

>  <smiles>  (7) 
OCc1ccc2c(c1)CCO2

>  <path>  (7) 
/opt/xchem-fragalysis-2/maxwin/CHIKV_Mac_20240920/aligned_files/c0969a/c0969a_hippo.pdb

>  <compound>  (7) 
XQDNBMXUZGAWSZ-UHFFFAOYSA-N

>  <target>  (7) 
CHIKV_Mac

>  <tags>  (7) 
['[Other] Adenine site', 'hits', '[Other] fragment screen']

>  <reference>  (7) 
None

>  <exports>  (7) 
['/opt/xchem-fragalysis-2/maxwin/CHIKV_HIPPO/web_resources/hit_poses.sdf', '/opt/xchem-fragalysis-2/maxwin/CHIKV_HIPPO/web/web_resources/hit_poses.sdf', '/opt/xchem-fragalysis-2/maxwin/CHIKV_HIPPO/web2/web_resources/hit_poses.sdf']

>  <observation_longname>  (7) 
CHIKV_MacB-x0969_A_304_1_CHIKV_MacB-x2352+C+401+1

>  <ConformerSites alias>  (7) 
1a - c2352/C/401

>  <CanonSites alias>  (7) 
1 - c2352/C/401/1

>  <CrystalformSites alias>  (7) 
F1a - c0270/A/304

>  <Quatassemblies alias>  (7) 
A1 - monomer

>  <Crystalforms alias>  (7) 
F1 - P31-4fold-NCS

$$$$
c0969e
     RDKit          3D

 11 12  0  0  0  0  0  0  0  0999 V2000
   16.2530   10.8490   15.8580 O   0  0  0  0  0  0  0  0  0  0  0  0
   14.9440   10.9750   15.3550 C   0  0  0  0  0  0  0  0  0  0  0  0
   14.9130   11.0240   13.8500 C   0  0  0  0  0  0  0  0  0  0  0  0
   15.2320    9.8990   13.0990 C   0  0  0  0  0  0  0  0  0  0  0  0
   15.1390    9.9120   11.7140 C   0  0  0  0  0  0  0  0  0  0  0  0
   15.4300    8.8640   10.6780 C   0  0  0  0  0  0  0  0  0  0  0  0
   15.3240    9.6750    9.3980 C   0  0  0  0  0  0  0  0  0  0  0  0
   14.6140   10.9070    9.7210 O   0  0  0  0  0  0  0  0  0  0  0  0
   14.7270   11.0710   11.0830 C   0  0  0  0  0  0  0  0  0  0  0  0
   14.4290   12.2170   11.7950 C   0  0  0  0  0  0  0  0  0  0  0  0
   14.5210   12.1790   13.1810 C   0  0  0  0  0  0  0  0  0  0  0  0
  2  1  1  0
  3  2  1  0
  3 11  2  0
 11 10  1  0
 10  9  2  0
  9  8  1  0
  8  7  1  0
  7  6  1  0
  6  5  1  0
  9  5  1  0
  5  4  2  0
  4  3  1  0
M  END
>  <id>  (8) 
5796

>  <inchikey>  (8) 
XQDNBMXUZGAWSZ-UHFFFAOYSA-N

>  <alias>  (8) 
c0969e

>  <smiles>  (8) 
OCc1ccc2c(c1)CCO2

>  <path>  (8) 
/opt/xchem-fragalysis-2/maxwin/CHIKV_Mac_20240920/aligned_files/c0969e/c0969e_hippo.pdb

>  <compound>  (8) 
XQDNBMXUZGAWSZ-UHFFFAOYSA-N

>  <target>  (8) 
CHIKV_Mac

>  <tags>  (8) 
['[Other] Adenine site', 'hits', '[Other] fragment screen']

>  <reference>  (8) 
None

>  <exports>  (8) 
['/opt/xchem-fragalysis-2/maxwin/CHIKV_HIPPO/web_resources/hit_poses.sdf', '/opt/xchem-fragalysis-2/maxwin/CHIKV_HIPPO/web/web_resources/hit_poses.sdf', '/opt/xchem-fragalysis-2/maxwin/CHIKV_HIPPO/web2/web_resources/hit_poses.sdf']

>  <observation_longname>  (8) 
nan

>  <ConformerSites alias>  (8) 
nan

>  <CanonSites alias>  (8) 
nan

>  <CrystalformSites alias>  (8) 
nan

>  <Quatassemblies alias>  (8) 
nan

>  <Crystalforms alias>  (8) 
nan

$$$$
c2343a
     RDKit          3D

 23 25  0  0  0  0  0  0  0  0999 V2000
   10.2820    8.1900   10.3290 F   0  0  0  0  0  0  0  0  0  0  0  0
   11.2050    9.0910   10.7360 C   0  0  0  0  0  0  0  0  0  0  0  0
   10.7880   10.3280   11.1840 C   0  0  0  0  0  0  0  0  0  0  0  0
    8.9480   10.7910   11.1780 Br  0  0  0  0  0  0  0  0  0  0  0  0
   11.7230   11.2480   11.6180 C   0  0  0  0  0  0  0  0  0  0  0  0
   13.0660   10.9170   11.5830 C   0  0  0  0  0  0  0  0  0  0  0  0
   12.5350    8.7560   10.6980 C   0  0  0  0  0  0  0  0  0  0  0  0
   13.4890    9.6790   11.1170 C   0  0  0  0  0  0  0  0  0  0  0  0
   14.9730    9.3530   11.0120 C   0  0  2  0  0  0  0  0  0  0  0  0
   15.4990    9.4990    9.5860 C   0  0  0  0  0  0  0  0  0  0  0  0
   15.2120    7.9700   11.5070 C   0  0  0  0  0  0  0  0  0  0  0  0
   15.3490    7.7870   12.8290 O   0  0  0  0  0  0  0  0  0  0  0  0
   15.6150    6.4110   13.0080 N   0  0  0  0  0  0  0  0  0  0  0  0
   15.6030    5.9480   11.7960 C   0  0  0  0  0  0  0  0  0  0  0  0
   15.3510    6.8830   10.8280 N   0  0  0  0  0  0  0  0  0  0  0  0
   15.8430    4.5190   11.4360 C   0  0  0  0  0  0  0  0  0  0  0  0
   16.4740    3.7670   12.5150 N   0  0  0  0  0  0  0  0  0  0  0  0
   17.8680    3.7590   12.5720 C   0  0  0  0  0  0  0  0  0  0  0  0
   18.5160    4.3920   11.7410 O   0  0  0  0  0  0  0  0  0  0  0  0
   18.4350    2.9860   13.6390 C   0  0  0  0  0  0  0  0  0  0  0  0
   17.6510    2.3180   14.5220 C   0  0  0  0  0  0  0  0  0  0  0  0
   16.2530    2.3690   14.4120 C   0  0  0  0  0  0  0  0  0  0  0  0
   15.6970    3.0890   13.4170 C   0  0  0  0  0  0  0  0  0  0  0  0
  9 10  1  6
 11  9  1  0
 11 15  2  0
 15 14  1  0
 16 14  1  0
 17 16  1  0
 17 23  1  0
 23 22  2  0
 22 21  1  0
 21 20  2  0
 20 18  1  0
 18 17  1  0
 19 18  2  0
 14 13  2  0
 13 12  1  0
 12 11  1  0
  9  8  1  0
  8  6  1  0
  6  5  2  0
  5  3  1  0
  4  3  1  0
  3  2  2  0
  2  1  1  0
  7  2  1  0
  8  7  2  0
M  END
>  <id>  (9) 
5797

>  <inchikey>  (9) 
MLFBKVSUVBBPBQ-JTQLQIEISA-N

>  <alias>  (9) 
c2343a

>  <smiles>  (9) 
C[C@@H](c1ccc(Br)c(F)c1)c1nc(Cn2ccccc2=O)no1

>  <path>  (9) 
/opt/xchem-fragalysis-2/maxwin/CHIKV_Mac_20240920/aligned_files/c2343a/c2343a_hippo.pdb

>  <compound>  (9) 
MLFBKVSUVBBPBQ-UHFFFAOYSA-N

>  <target>  (9) 
CHIKV_Mac

>  <tags>  (9) 
['hits', '[Other] Oxyanion site', '[Other] New', '[Other] Trp148 site', '[Series] catalogue compound']

>  <reference>  (9) 
None

>  <exports>  (9) 
['/opt/xchem-fragalysis-2/maxwin/CHIKV_HIPPO/web_resources/hit_poses.sdf', '/opt/xchem-fragalysis-2/maxwin/CHIKV_HIPPO/web/web_resources/hit_poses.sdf', '/opt/xchem-fragalysis-2/maxwin/CHIKV_HIPPO/web2/web_resources/hit_poses.sdf']

>  <observation_longname>  (9) 
CHIKV_MacB-x2343_C_401_2_CHIKV_MacB-x2346+C+401+1

>  <ConformerSites alias>  (9) 
13a - c2346/C/401

>  <CanonSites alias>  (9) 
13 - c2346/C/401/1

>  <CrystalformSites alias>  (9) 
F1m - c2346/C/401

>  <Quatassemblies alias>  (9) 
A1 - monomer

>  <Crystalforms alias>  (9) 
F1 - P31-4fold-NCS

$$$$
c1320a
     RDKit          3D

 11 12  0  0  0  0  0  0  0  0999 V2000
   14.3310   14.7340   10.1590 O   0  0  0  0  0  0  0  0  0  0  0  0
   14.5740   14.5490   11.3290 C   0  0  0  0  0  0  0  0  0  0  0  0
   14.2650   13.3000   11.8360 O   0  0  0  0  0  0  0  0  0  0  0  0
   14.4980   12.9680   13.1630 C   0  0  0  0  0  0  0  0  0  0  0  0
   15.0540   13.8990   14.0500 C   0  0  0  0  0  0  0  0  0  0  0  0
   15.3660   15.2090   13.5390 C   0  0  0  0  0  0  0  0  0  0  0  0
   15.1450   15.5160   12.2510 C   0  0  0  0  0  0  0  0  0  0  0  0
   14.2200   11.6670   13.5560 C   0  0  0  0  0  0  0  0  0  0  0  0
   14.5130   11.2770   14.8540 C   0  0  0  0  0  0  0  0  0  0  0  0
   15.0620   12.1780   15.7500 C   0  0  0  0  0  0  0  0  0  0  0  0
   15.3280   13.4820   15.3570 C   0  0  0  0  0  0  0  0  0  0  0  0
  2  1  2  0
  2  7  1  0
  7  6  2  0
  6  5  1  0
  5 11  2  0
 11 10  1  0
 10  9  2  0
  9  8  1  0
  8  4  2  0
  5  4  1  0
  4  3  1  0
  3  2  1  0
M  END
>  <id>  (10) 
5798

>  <inchikey>  (10) 
ZYGHJZDHTFUPRJ-UHFFFAOYSA-N

>  <alias>  (10) 
c1320a

>  <smiles>  (10) 
O=c1ccc2ccccc2o1

>  <path>  (10) 
/opt/xchem-fragalysis-2/maxwin/CHIKV_Mac_20240920/aligned_files/c1320a/c1320a_hippo.pdb

>  <compound>  (10) 
ZYGHJZDHTFUPRJ-UHFFFAOYSA-N

>  <target>  (10) 
CHIKV_Mac

>  <tags>  (10) 
['[Other] Adenine site', 'hits', '[Other] fragment screen']

>  <reference>  (10) 
None

>  <exports>  (10) 
['/opt/xchem-fragalysis-2/maxwin/CHIKV_HIPPO/web_resources/hit_poses.sdf', '/opt/xchem-fragalysis-2/maxwin/CHIKV_HIPPO/web/web_resources/hit_poses.sdf', '/opt/xchem-fragalysis-2/maxwin/CHIKV_HIPPO/web2/web_resources/hit_poses.sdf']

>  <observation_longname>  (10) 
nan

>  <ConformerSites alias>  (10) 
nan

>  <CanonSites alias>  (10) 
nan

>  <CrystalformSites alias>  (10) 
nan

>  <Quatassemblies alias>  (10) 
nan

>  <Crystalforms alias>  (10) 
nan

$$$$
c1075a
     RDKit          3D

  8  8  0  0  0  0  0  0  0  0999 V2000
   14.8170    8.1180   13.2400 Br  0  0  0  0  0  0  0  0  0  0  0  0
   14.7570    9.4710   11.9110 C   0  0  0  0  0  0  0  0  0  0  0  0
   14.9390    9.1290   10.5930 C   0  0  0  0  0  0  0  0  0  0  0  0
   14.8410   10.1440    9.6620 C   0  0  0  0  0  0  0  0  0  0  0  0
   14.5720   11.4210    9.9750 N   0  0  0  0  0  0  0  0  0  0  0  0
   14.5000   10.7730   12.2890 C   0  0  0  0  0  0  0  0  0  0  0  0
   14.3970   11.7290   11.2830 C   0  0  0  0  0  0  0  0  0  0  0  0
   14.0780   13.0030   11.5680 N   0  0  0  0  0  0  0  0  0  0  0  0
  8  7  1  0
  7  5  1  0
  5  4  2  0
  4  3  1  0
  3  2  2  0
  2  1  1  0
  6  2  1  0
  7  6  2  0
M  END
>  <id>  (11) 
5799

>  <inchikey>  (11) 
BAQKUNMKVAPWGU-UHFFFAOYSA-N

>  <alias>  (11) 
c1075a

>  <smiles>  (11) 
Nc1cc(Br)ccn1

>  <path>  (11) 
/opt/xchem-fragalysis-2/maxwin/CHIKV_Mac_20240920/aligned_files/c1075a/c1075a_hippo.pdb

>  <compound>  (11) 
BAQKUNMKVAPWGU-UHFFFAOYSA-N

>  <target>  (11) 
CHIKV_Mac

>  <tags>  (11) 
['[Other] Adenine site', 'hits', '[Other] fragment screen']

>  <reference>  (11) 
None

>  <exports>  (11) 
['/opt/xchem-fragalysis-2/maxwin/CHIKV_HIPPO/web_resources/hit_poses.sdf', '/opt/xchem-fragalysis-2/maxwin/CHIKV_HIPPO/web/web_resources/hit_poses.sdf', '/opt/xchem-fragalysis-2/maxwin/CHIKV_HIPPO/web2/web_resources/hit_poses.sdf']

>  <observation_longname>  (11) 
CHIKV_MacB-x1075_A_304_1_CHIKV_MacB-x2352+C+401+1

>  <ConformerSites alias>  (11) 
1a - c2352/C/401

>  <CanonSites alias>  (11) 
1 - c2352/C/401/1

>  <CrystalformSites alias>  (11) 
F1a - c0270/A/304

>  <Quatassemblies alias>  (11) 
A1 - monomer

>  <Crystalforms alias>  (11) 
F1 - P31-4fold-NCS

$$$$
c1075b
     RDKit          3D

  8  8  0  0  0  0  0  0  0  0999 V2000
   15.2500    8.2580   13.3050 Br  0  0  0  0  0  0  0  0  0  0  0  0
   15.0680    9.5780   11.9520 C   0  0  0  0  0  0  0  0  0  0  0  0
   15.3210    9.2400   10.6430 C   0  0  0  0  0  0  0  0  0  0  0  0
   15.1440   10.2260    9.6940 C   0  0  0  0  0  0  0  0  0  0  0  0
   14.7360   11.4720    9.9760 N   0  0  0  0  0  0  0  0  0  0  0  0
   14.6630   10.8490   12.3020 C   0  0  0  0  0  0  0  0  0  0  0  0
   14.4980   11.7790   11.2780 C   0  0  0  0  0  0  0  0  0  0  0  0
   14.0720   13.0250   11.5390 N   0  0  0  0  0  0  0  0  0  0  0  0
  8  7  1  0
  7  5  1  0
  5  4  2  0
  4  3  1  0
  3  2  2  0
  2  1  1  0
  6  2  1  0
  7  6  2  0
M  END
>  <id>  (12) 
5800

>  <inchikey>  (12) 
BAQKUNMKVAPWGU-UHFFFAOYSA-N

>  <alias>  (12) 
c1075b

>  <smiles>  (12) 
Nc1cc(Br)ccn1

>  <path>  (12) 
/opt/xchem-fragalysis-2/maxwin/CHIKV_Mac_20240920/aligned_files/c1075b/c1075b_hippo.pdb

>  <compound>  (12) 
BAQKUNMKVAPWGU-UHFFFAOYSA-N

>  <target>  (12) 
CHIKV_Mac

>  <tags>  (12) 
['[Other] Adenine site', 'hits', '[Other] fragment screen']

>  <reference>  (12) 
None

>  <exports>  (12) 
['/opt/xchem-fragalysis-2/maxwin/CHIKV_HIPPO/web_resources/hit_poses.sdf', '/opt/xchem-fragalysis-2/maxwin/CHIKV_HIPPO/web/web_resources/hit_poses.sdf', '/opt/xchem-fragalysis-2/maxwin/CHIKV_HIPPO/web2/web_resources/hit_poses.sdf']

>  <observation_longname>  (12) 
nan

>  <ConformerSites alias>  (12) 
nan

>  <CanonSites alias>  (12) 
nan

>  <CrystalformSites alias>  (12) 
nan

>  <Quatassemblies alias>  (12) 
nan

>  <Crystalforms alias>  (12) 
nan

$$$$
c1075c
     RDKit          3D

  8  8  0  0  0  0  0  0  0  0999 V2000
   15.2280    8.0910   13.3430 Br  0  0  0  0  0  0  0  0  0  0  0  0
   15.0310    9.3760   11.9570 C   0  0  0  0  0  0  0  0  0  0  0  0
   15.1800    8.9810   10.6450 C   0  0  0  0  0  0  0  0  0  0  0  0
   15.0720    9.9600    9.6790 C   0  0  0  0  0  0  0  0  0  0  0  0
   14.8250   11.2530    9.9490 N   0  0  0  0  0  0  0  0  0  0  0  0
   14.7800   10.6930   12.2890 C   0  0  0  0  0  0  0  0  0  0  0  0
   14.6840   11.6160   11.2440 C   0  0  0  0  0  0  0  0  0  0  0  0
   14.4550   12.9150   11.4800 N   0  0  0  0  0  0  0  0  0  0  0  0
  8  7  1  0
  7  5  1  0
  5  4  2  0
  4  3  1  0
  3  2  2  0
  2  1  1  0
  6  2  1  0
  7  6  2  0
M  END
>  <id>  (13) 
5801

>  <inchikey>  (13) 
BAQKUNMKVAPWGU-UHFFFAOYSA-N

>  <alias>  (13) 
c1075c

>  <smiles>  (13) 
Nc1cc(Br)ccn1

>  <path>  (13) 
/opt/xchem-fragalysis-2/maxwin/CHIKV_Mac_20240920/aligned_files/c1075c/c1075c_hippo.pdb

>  <compound>  (13) 
BAQKUNMKVAPWGU-UHFFFAOYSA-N

>  <target>  (13) 
CHIKV_Mac

>  <tags>  (13) 
['[Other] Adenine site', 'hits', '[Other] fragment screen']

>  <reference>  (13) 
None

>  <exports>  (13) 
['/opt/xchem-fragalysis-2/maxwin/CHIKV_HIPPO/web_resources/hit_poses.sdf', '/opt/xchem-fragalysis-2/maxwin/CHIKV_HIPPO/web/web_resources/hit_poses.sdf', '/opt/xchem-fragalysis-2/maxwin/CHIKV_HIPPO/web2/web_resources/hit_poses.sdf']

>  <observation_longname>  (13) 
CHIKV_MacB-x1075_D_401_1_CHIKV_MacB-x2352+C+401+1

>  <ConformerSites alias>  (13) 
1a - c2352/C/401

>  <CanonSites alias>  (13) 
1 - c2352/C/401/1

>  <CrystalformSites alias>  (13) 
F1a - c0270/A/304

>  <Quatassemblies alias>  (13) 
A1 - monomer

>  <Crystalforms alias>  (13) 
F1 - P31-4fold-NCS

$$$$
c0270a
     RDKit          3D

 14 15  0  0  0  0  0  0  0  0999 V2000
   15.4930   10.8290   12.2770 O   0  0  0  0  0  0  0  0  0  0  0  0
   16.4150   11.0230   11.4790 C   0  0  0  0  0  0  0  0  0  0  0  0
   16.5480   10.3150   10.3590 N   0  0  0  0  0  0  0  0  0  0  0  0
   15.8100    9.0860   10.1320 C   0  0  0  0  0  0  0  0  0  0  0  0
   17.4330   12.1040   11.7200 C   0  0  0  0  0  0  0  0  0  0  0  0
   18.8190   12.1820   11.2960 C   0  0  0  0  0  0  0  0  0  0  0  0
   19.3400   13.3700   11.8340 C   0  0  0  0  0  0  0  0  0  0  0  0
   18.3340   13.9990   12.5340 N   0  0  0  0  0  0  0  0  0  0  0  0
   18.4580   15.2680   13.2420 C   0  0  0  0  0  0  0  0  0  0  0  0
   17.2010   13.2320   12.4600 C   0  0  0  0  0  0  0  0  0  0  0  0
   19.6630   11.3620   10.5430 C   0  0  0  0  0  0  0  0  0  0  0  0
   20.9930   11.7240   10.3610 C   0  0  0  0  0  0  0  0  0  0  0  0
   21.4900   12.8960   10.9150 C   0  0  0  0  0  0  0  0  0  0  0  0
   20.6670   13.7360   11.6510 C   0  0  0  0  0  0  0  0  0  0  0  0
  4  3  1  0
  3  2  1  0
  2  1  2  0
  5  2  1  0
  5 10  2  0
 10  8  1  0
  9  8  1  0
  8  7  1  0
  7 14  2  0
 14 13  1  0
 13 12  2  0
 12 11  1  0
 11  6  2  0
  6  5  1  0
  7  6  1  0
M  END
>  <id>  (14) 
5802

>  <inchikey>  (14) 
OHXYWSIWHXTWCT-UHFFFAOYSA-N

>  <alias>  (14) 
c0270a

>  <smiles>  (14) 
CNC(=O)c1cn(C)c2ccccc12

>  <path>  (14) 
/opt/xchem-fragalysis-2/maxwin/CHIKV_Mac_20240920/aligned_files/c0270a/c0270a.pdb

>  <compound>  (14) 
OHXYWSIWHXTWCT-UHFFFAOYSA-N

>  <target>  (14) 
CHIKV_Mac

>  <tags>  (14) 
['hits', '[Other] Arg144 pocket', '[Other] fragment screen']

>  <reference>  (14) 
None

>  <exports>  (14) 
['/opt/xchem-fragalysis-2/maxwin/CHIKV_HIPPO/web_resources/hit_poses.sdf', '/opt/xchem-fragalysis-2/maxwin/CHIKV_HIPPO/web/web_resources/hit_poses.sdf', '/opt/xchem-fragalysis-2/maxwin/CHIKV_HIPPO/web2/web_resources/hit_poses.sdf']

>  <observation_longname>  (14) 
nan

>  <ConformerSites alias>  (14) 
nan

>  <CanonSites alias>  (14) 
nan

>  <CrystalformSites alias>  (14) 
nan

>  <Quatassemblies alias>  (14) 
nan

>  <Crystalforms alias>  (14) 
nan

$$$$
c0281a
     RDKit          3D

 10 11  0  0  0  0  0  0  0  0999 V2000
    6.8080    6.7600   15.5010 C   0  0  0  0  0  0  0  0  0  0  0  0
    7.4660    7.9180   15.7910 N   0  0  0  0  0  0  0  0  0  0  0  0
    8.7130    7.8310   15.2020 N   0  0  0  0  0  0  0  0  0  0  0  0
    7.6050    5.9790   14.7490 N   0  0  0  0  0  0  0  0  0  0  0  0
    8.7660    6.6630   14.5780 C   0  0  0  0  0  0  0  0  0  0  0  0
    9.8220    6.2450   13.6700 C   0  0  0  0  0  0  0  0  0  0  0  0
    9.6180    5.0440   12.4470 S   0  0  0  0  0  0  0  0  0  0  0  0
   11.2790    5.2180   12.0340 C   0  0  0  0  0  0  0  0  0  0  0  0
   11.0610    6.7250   13.7700 N   0  0  0  0  0  0  0  0  0  0  0  0
   11.8700    6.1280   12.8380 C   0  0  0  0  0  0  0  0  0  0  0  0
 10  8  2  0
  8  7  1  0
  7  6  1  0
  9  6  2  0
 10  9  1  0
  6  5  1  0
  5  3  2  0
  3  2  1  0
  2  1  2  0
  4  1  1  0
  5  4  1  0
M  END
>  <id>  (15) 
5803

>  <inchikey>  (15) 
WFEGFRJBAYCOHP-UHFFFAOYSA-N

>  <alias>  (15) 
c0281a

>  <smiles>  (15) 
c1csc(-c2nnc[nH]2)n1

>  <path>  (15) 
/opt/xchem-fragalysis-2/maxwin/CHIKV_Mac_20240920/aligned_files/c0281a/c0281a.pdb

>  <compound>  (15) 
WFEGFRJBAYCOHP-UHFFFAOYSA-N

>  <target>  (15) 
CHIKV_Mac

>  <tags>  (15) 
['hits', '[Other] Ribose site', '[Other] Phosphate site', '[Other] fragment screen']

>  <reference>  (15) 
None

>  <exports>  (15) 
['/opt/xchem-fragalysis-2/maxwin/CHIKV_HIPPO/web_resources/hit_poses.sdf', '/opt/xchem-fragalysis-2/maxwin/CHIKV_HIPPO/web/web_resources/hit_poses.sdf', '/opt/xchem-fragalysis-2/maxwin/CHIKV_HIPPO/web2/web_resources/hit_poses.sdf']

>  <observation_longname>  (15) 
CHIKV_MacB-x0281_C_304_1_CHIKV_MacB-x2352+C+401+1

>  <ConformerSites alias>  (15) 
1a - c2352/C/401

>  <CanonSites alias>  (15) 
1 - c2352/C/401/1

>  <CrystalformSites alias>  (15) 
F1a - c0270/A/304

>  <Quatassemblies alias>  (15) 
A1 - monomer

>  <Crystalforms alias>  (15) 
F1 - P31-4fold-NCS

$$$$
c0289a
     RDKit          3D

 17 18  0  0  0  0  0  0  0  0999 V2000
   15.1410   11.4590    9.8980 O   0  0  0  0  0  0  0  0  0  0  0  0
   15.8250   10.2070   10.0250 S   0  0  0  0  0  0  0  0  0  0  0  0
   15.5480    9.1590    9.0900 O   0  0  0  0  0  0  0  0  0  0  0  0
   15.5210    9.5790   11.6440 C   0  0  0  0  0  0  0  0  0  0  0  0
   15.5480    8.2110   11.8650 C   0  0  0  0  0  0  0  0  0  0  0  0
   15.3330    7.7220   13.1420 C   0  0  0  0  0  0  0  0  0  0  0  0
   15.2690   10.4590   12.6850 C   0  0  0  0  0  0  0  0  0  0  0  0
   15.0560    9.9650   13.9590 C   0  0  0  0  0  0  0  0  0  0  0  0
   15.0930    8.5890   14.2110 C   0  0  0  0  0  0  0  0  0  0  0  0
   14.9200    8.1020   15.4890 N   0  0  0  0  0  0  0  0  0  0  0  0
   17.4430   10.4440    9.8860 N   0  0  0  0  0  0  0  0  0  0  0  0
   18.2830   11.4030   10.5000 C   0  0  0  0  0  0  0  0  0  0  0  0
   19.5850   11.2410   10.2070 N   0  0  0  0  0  0  0  0  0  0  0  0
   20.4500   12.1640   10.6610 C   0  0  0  0  0  0  0  0  0  0  0  0
   20.0750   13.2530   11.4170 C   0  0  0  0  0  0  0  0  0  0  0  0
   18.7420   13.3990   11.7320 C   0  0  0  0  0  0  0  0  0  0  0  0
   17.8140   12.4730   11.2780 C   0  0  0  0  0  0  0  0  0  0  0  0
 10  9  1  0
  9  6  1  0
  6  5  2  0
  5  4  1  0
  7  4  2  0
  8  7  1  0
  9  8  2  0
  4  2  1  0
  3  2  2  0
  2  1  2  0
 11  2  1  0
 12 11  1  0
 12 17  2  0
 17 16  1  0
 16 15  2  0
 15 14  1  0
 14 13  2  0
 13 12  1  0
M  END
>  <id>  (16) 
5804

>  <inchikey>  (16) 
GECHUMIMRBOMGK-UHFFFAOYSA-N

>  <alias>  (16) 
c0289a

>  <smiles>  (16) 
Nc1ccc(S(=O)(=O)Nc2ccccn2)cc1

>  <path>  (16) 
/opt/xchem-fragalysis-2/maxwin/CHIKV_Mac_20240920/aligned_files/c0289a/c0289a.pdb

>  <compound>  (16) 
GECHUMIMRBOMGK-UHFFFAOYSA-N

>  <target>  (16) 
CHIKV_Mac

>  <tags>  (16) 
['[Other] Adenine site', 'hits', '[Other] Arg144 pocket', '[Other] fragment screen']

>  <reference>  (16) 
None

>  <exports>  (16) 
['/opt/xchem-fragalysis-2/maxwin/CHIKV_HIPPO/web_resources/hit_poses.sdf', '/opt/xchem-fragalysis-2/maxwin/CHIKV_HIPPO/web/web_resources/hit_poses.sdf', '/opt/xchem-fragalysis-2/maxwin/CHIKV_HIPPO/web2/web_resources/hit_poses.sdf']

>  <observation_longname>  (16) 
nan

>  <ConformerSites alias>  (16) 
nan

>  <CanonSites alias>  (16) 
nan

>  <CrystalformSites alias>  (16) 
nan

>  <Quatassemblies alias>  (16) 
nan

>  <Crystalforms alias>  (16) 
nan

$$$$
c0294b
     RDKit          3D

 13 13  0  0  0  0  0  0  0  0999 V2000
    1.0750   -7.4070   24.9900 N   0  0  0  0  0  0  0  0  0  0  0  0
    1.9770   -7.3220   24.3140 C   0  0  0  0  0  0  0  0  0  0  0  0
    3.1780   -7.0940   23.5200 C   0  0  0  0  0  0  0  0  0  0  0  0
    3.8920   -8.3630   23.1840 C   0  0  0  0  0  0  0  0  0  0  0  0
    3.4620   -9.5780   23.4630 N   0  0  0  0  0  0  0  0  0  0  0  0
    4.4260  -10.4290   22.9610 C   0  0  0  0  0  0  0  0  0  0  0  0
    5.4280   -9.7260   22.3790 C   0  0  0  0  0  0  0  0  0  0  0  0
    5.0900   -8.4000   22.5200 N   0  0  0  0  0  0  0  0  0  0  0  0
    5.8540   -7.2630   21.9990 C   0  0  0  0  0  0  0  0  0  0  0  0
    7.3330   -7.1390   22.2500 C   0  0  0  0  0  0  0  0  0  0  0  0
    7.9220   -8.2870   22.5830 F   0  0  0  0  0  0  0  0  0  0  0  0
    7.5830   -6.2770   23.2440 F   0  0  0  0  0  0  0  0  0  0  0  0
    7.9740   -6.6890   21.1560 F   0  0  0  0  0  0  0  0  0  0  0  0
 11 10  1  0
 12 10  1  0
 13 10  1  0
 10  9  1  0
  9  8  1  0
  8  7  1  0
  7  6  2  0
  6  5  1  0
  5  4  2  0
  8  4  1  0
  4  3  1  0
  3  2  1  0
  2  1  3  0
M  END
>  <id>  (17) 
5805

>  <inchikey>  (17) 
WWHCIFNAXSSZJE-UHFFFAOYSA-N

>  <alias>  (17) 
c0294b

>  <smiles>  (17) 
N#CCc1nccn1CC(F)(F)F

>  <path>  (17) 
/opt/xchem-fragalysis-2/maxwin/CHIKV_Mac_20240920/aligned_files/c0294b/c0294b_hippo.pdb

>  <compound>  (17) 
WWHCIFNAXSSZJE-UHFFFAOYSA-N

>  <target>  (17) 
CHIKV_Mac

>  <tags>  (17) 
['[Other] ignore', 'hits']

>  <reference>  (17) 
None

>  <exports>  (17) 
['/opt/xchem-fragalysis-2/maxwin/CHIKV_HIPPO/web_resources/hit_poses.sdf', '/opt/xchem-fragalysis-2/maxwin/CHIKV_HIPPO/web/web_resources/hit_poses.sdf', '/opt/xchem-fragalysis-2/maxwin/CHIKV_HIPPO/web2/web_resources/hit_poses.sdf']

>  <observation_longname>  (17) 
nan

>  <ConformerSites alias>  (17) 
nan

>  <CanonSites alias>  (17) 
nan

>  <CrystalformSites alias>  (17) 
nan

>  <Quatassemblies alias>  (17) 
nan

>  <Crystalforms alias>  (17) 
nan

$$$$
c0294a
     RDKit          3D

 13 13  0  0  0  0  0  0  0  0999 V2000
   16.9120   -2.2400   17.6340 N   0  0  0  0  0  0  0  0  0  0  0  0
   16.8000   -1.1270   17.4070 C   0  0  0  0  0  0  0  0  0  0  0  0
   16.6070    0.3050   17.1940 C   0  0  0  0  0  0  0  0  0  0  0  0
   17.6990    0.9140   16.3650 C   0  0  0  0  0  0  0  0  0  0  0  0
   18.9900    0.7900   16.6090 N   0  0  0  0  0  0  0  0  0  0  0  0
   19.6180    1.5330   15.6350 C   0  0  0  0  0  0  0  0  0  0  0  0
   18.7100    2.0970   14.8090 C   0  0  0  0  0  0  0  0  0  0  0  0
   17.4790    1.7020   15.2760 N   0  0  0  0  0  0  0  0  0  0  0  0
   16.1940    2.1240   14.7090 C   0  0  0  0  0  0  0  0  0  0  0  0
   15.7600    3.3710   15.4290 C   0  0  0  0  0  0  0  0  0  0  0  0
   14.6870    3.9230   14.8530 F   0  0  0  0  0  0  0  0  0  0  0  0
   15.4570    3.1510   16.7150 F   0  0  0  0  0  0  0  0  0  0  0  0
   16.7140    4.2980   15.4380 F   0  0  0  0  0  0  0  0  0  0  0  0
 11 10  1  0
 12 10  1  0
 13 10  1  0
 10  9  1  0
  9  8  1  0
  8  7  1  0
  7  6  2  0
  6  5  1  0
  5  4  2  0
  8  4  1  0
  4  3  1  0
  3  2  1  0
  2  1  3  0
M  END
>  <id>  (18) 
5806

>  <inchikey>  (18) 
WWHCIFNAXSSZJE-UHFFFAOYSA-N

>  <alias>  (18) 
c0294a

>  <smiles>  (18) 
N#CCc1nccn1CC(F)(F)F

>  <path>  (18) 
/opt/xchem-fragalysis-2/maxwin/CHIKV_Mac_20240920/aligned_files/c0294a/c0294a_hippo.pdb

>  <compound>  (18) 
WWHCIFNAXSSZJE-UHFFFAOYSA-N

>  <target>  (18) 
CHIKV_Mac

>  <tags>  (18) 
['hits', '[Other] Trp148 site', '[Other] fragment screen']

>  <reference>  (18) 
None

>  <exports>  (18) 
['/opt/xchem-fragalysis-2/maxwin/CHIKV_HIPPO/web_resources/hit_poses.sdf', '/opt/xchem-fragalysis-2/maxwin/CHIKV_HIPPO/web/web_resources/hit_poses.sdf', '/opt/xchem-fragalysis-2/maxwin/CHIKV_HIPPO/web2/web_resources/hit_poses.sdf']

>  <observation_longname>  (18) 
CHIKV_MacB-x0294_A_401_1_CHIKV_MacB-x2352+C+401+1

>  <ConformerSites alias>  (18) 
1a - c2352/C/401

>  <CanonSites alias>  (18) 
1 - c2352/C/401/1

>  <CrystalformSites alias>  (18) 
F1a - c0270/A/304

>  <Quatassemblies alias>  (18) 
A1 - monomer

>  <Crystalforms alias>  (18) 
F1 - P31-4fold-NCS

$$$$
c0294c
     RDKit          3D

 13 13  0  0  0  0  0  0  0  0999 V2000
   16.9760   -2.1700   17.9800 N   0  0  0  0  0  0  0  0  0  0  0  0
   16.8720   -1.0990   17.6120 C   0  0  0  0  0  0  0  0  0  0  0  0
   16.6330    0.2740   17.1710 C   0  0  0  0  0  0  0  0  0  0  0  0
   17.7240    0.7960   16.2910 C   0  0  0  0  0  0  0  0  0  0  0  0
   18.9920    0.4300   16.3550 N   0  0  0  0  0  0  0  0  0  0  0  0
   19.6340    1.1750   15.3890 C   0  0  0  0  0  0  0  0  0  0  0  0
   18.7570    1.9800   14.7470 C   0  0  0  0  0  0  0  0  0  0  0  0
   17.5310    1.7370   15.3220 N   0  0  0  0  0  0  0  0  0  0  0  0
   16.2810    2.4000   14.9440 C   0  0  0  0  0  0  0  0  0  0  0  0
   16.1630    3.5810   15.8620 C   0  0  0  0  0  0  0  0  0  0  0  0
   15.1440    4.3680   15.5550 F   0  0  0  0  0  0  0  0  0  0  0  0
   15.9890    3.2230   17.1280 F   0  0  0  0  0  0  0  0  0  0  0  0
   17.2620    4.3300   15.8290 F   0  0  0  0  0  0  0  0  0  0  0  0
 11 10  1  0
 12 10  1  0
 13 10  1  0
 10  9  1  0
  9  8  1  0
  8  7  1  0
  7  6  2  0
  6  5  1  0
  5  4  2  0
  8  4  1  0
  4  3  1  0
  3  2  1  0
  2  1  3  0
M  END
>  <id>  (19) 
5807

>  <inchikey>  (19) 
WWHCIFNAXSSZJE-UHFFFAOYSA-N

>  <alias>  (19) 
c0294c

>  <smiles>  (19) 
N#CCc1nccn1CC(F)(F)F

>  <path>  (19) 
/opt/xchem-fragalysis-2/maxwin/CHIKV_Mac_20240920/aligned_files/c0294c/c0294c_hippo.pdb

>  <compound>  (19) 
WWHCIFNAXSSZJE-UHFFFAOYSA-N

>  <target>  (19) 
CHIKV_Mac

>  <tags>  (19) 
['hits', '[Other] Trp148 site', '[Other] fragment screen']

>  <reference>  (19) 
None

>  <exports>  (19) 
['/opt/xchem-fragalysis-2/maxwin/CHIKV_HIPPO/web_resources/hit_poses.sdf', '/opt/xchem-fragalysis-2/maxwin/CHIKV_HIPPO/web/web_resources/hit_poses.sdf', '/opt/xchem-fragalysis-2/maxwin/CHIKV_HIPPO/web2/web_resources/hit_poses.sdf']

>  <observation_longname>  (19) 
nan

>  <ConformerSites alias>  (19) 
nan

>  <CanonSites alias>  (19) 
nan

>  <CrystalformSites alias>  (19) 
nan

>  <Quatassemblies alias>  (19) 
nan

>  <Crystalforms alias>  (19) 
nan

$$$$
c0295a
     RDKit          3D

 15 16  0  0  0  0  0  0  0  0999 V2000
   22.7780   11.3370   13.2990 O   0  0  0  0  0  0  0  0  0  0  0  0
   23.1150   11.8510   12.2310 C   0  0  0  0  0  0  0  0  0  0  0  0
   24.3620   12.5270   11.9930 C   0  0  0  0  0  0  0  0  0  0  0  0
   24.6640   13.0490   10.7880 C   0  0  0  0  0  0  0  0  0  0  0  0
   23.7010   12.9160    9.7190 C   0  0  0  0  0  0  0  0  0  0  0  0
   23.9720   13.4650    8.3530 C   0  0  0  0  0  0  0  0  0  0  0  0
   22.5560   12.3170    9.8840 N   0  0  0  0  0  0  0  0  0  0  0  0
   22.2800   11.8020   11.1310 N   0  0  0  0  0  0  0  0  0  0  0  0
   20.9680   11.1960   11.2530 C   0  0  0  0  0  0  0  0  0  0  0  0
   19.9340   12.1830   11.6660 C   0  0  0  0  0  0  0  0  0  0  0  0
   19.9850   13.4430   12.1240 C   0  0  0  0  0  0  0  0  0  0  0  0
   18.6500   11.7750   11.5880 O   0  0  0  0  0  0  0  0  0  0  0  0
   17.8150   12.8370   12.0280 N   0  0  0  0  0  0  0  0  0  0  0  0
   18.6500   13.8220   12.3430 C   0  0  0  0  0  0  0  0  0  0  0  0
   18.1320   15.1250   12.8660 C   0  0  0  0  0  0  0  0  0  0  0  0
 15 14  1  0
 14 11  1  0
 11 10  2  0
 10  9  1  0
  9  8  1  0
  8  7  1  0
  7  5  2  0
  6  5  1  0
  5  4  1  0
  4  3  2  0
  3  2  1  0
  8  2  1  0
  2  1  2  0
 12 10  1  0
 13 12  1  0
 14 13  2  0
M  END
>  <id>  (20) 
5808

>  <inchikey>  (20) 
PLCLGFAKZPXQFY-UHFFFAOYSA-N

>  <alias>  (20) 
c0295a

>  <smiles>  (20) 
Cc1cc(Cn2nc(C)ccc2=O)on1

>  <path>  (20) 
/opt/xchem-fragalysis-2/maxwin/CHIKV_Mac_20240920/aligned_files/c0295a/c0295a.pdb

>  <compound>  (20) 
PLCLGFAKZPXQFY-UHFFFAOYSA-N

>  <target>  (20) 
CHIKV_Mac

>  <tags>  (20) 
['[Other] ignore', 'hits']

>  <reference>  (20) 
None

>  <exports>  (20) 
['/opt/xchem-fragalysis-2/maxwin/CHIKV_HIPPO/web_resources/hit_poses.sdf', '/opt/xchem-fragalysis-2/maxwin/CHIKV_HIPPO/web/web_resources/hit_poses.sdf', '/opt/xchem-fragalysis-2/maxwin/CHIKV_HIPPO/web2/web_resources/hit_poses.sdf']

>  <observation_longname>  (20) 
CHIKV_MacB-x0295_A_401_1_CHIKV_MacB-x2352+C+401+1

>  <ConformerSites alias>  (20) 
1a - c2352/C/401

>  <CanonSites alias>  (20) 
1 - c2352/C/401/1

>  <CrystalformSites alias>  (20) 
F1a - c0270/A/304

>  <Quatassemblies alias>  (20) 
A1 - monomer

>  <Crystalforms alias>  (20) 
F1 - P31-4fold-NCS

$$$$
c0300a
     RDKit          3D

 15 16  0  0  0  0  0  0  0  0999 V2000
   18.6050    4.0900   11.4700 O   0  0  0  0  0  0  0  0  0  0  0  0
   17.6860    3.9660   12.2680 C   0  0  0  0  0  0  0  0  0  0  0  0
   17.9670    3.8590   13.7400 C   0  0  0  0  0  0  0  0  0  0  0  0
   16.7960    3.4240   14.6240 C   0  0  0  0  0  0  0  0  0  0  0  0
   16.4290    3.9220   11.8540 N   0  0  0  0  0  0  0  0  0  0  0  0
   15.2710    3.5700   12.6700 C   0  0  0  0  0  0  0  0  0  0  0  0
   15.5050    4.0200   14.0980 C   0  0  2  0  0  0  0  0  0  0  0  0
   15.5840    5.4800   14.1250 N   0  0  0  0  0  0  0  0  0  0  0  0
   15.0270    6.2280   15.0840 C   0  0  0  0  0  0  0  0  0  0  0  0
   14.6450    5.7810   16.1610 O   0  0  0  0  0  0  0  0  0  0  0  0
   14.9290    7.6680   14.7570 C   0  0  0  0  0  0  0  0  0  0  0  0
   15.0540    8.0970   13.4480 N   0  0  0  0  0  0  0  0  0  0  0  0
   14.9920    9.3900   13.4100 C   0  0  0  0  0  0  0  0  0  0  0  0
   14.7780   10.1680   14.9160 S   0  0  0  0  0  0  0  0  0  0  0  0
   14.7650    8.6500   15.6750 C   0  0  0  0  0  0  0  0  0  0  0  0
 10  9  2  0
  9  8  1  0
  7  8  1  6
  7  4  1  0
  4  3  1  0
  3  2  1  0
  2  1  2  0
  5  2  1  0
  6  5  1  0
  7  6  1  0
 11  9  1  0
 11 15  2  0
 15 14  1  0
 14 13  1  0
 13 12  2  0
 12 11  1  0
M  END
>  <id>  (21) 
5809

>  <inchikey>  (21) 
MTDCJLXPYPQTPX-ZCFIWIBFSA-N

>  <alias>  (21) 
c0300a

>  <smiles>  (21) 
O=C1CC[C@@H](NC(=O)c2cscn2)CN1

>  <path>  (21) 
/opt/xchem-fragalysis-2/maxwin/CHIKV_Mac_20240920/aligned_files/c0300a/c0300a_hippo.pdb

>  <compound>  (21) 
MTDCJLXPYPQTPX-UHFFFAOYSA-N

>  <target>  (21) 
CHIKV_Mac

>  <tags>  (21) 
['[Other] Oxyanion site', 'hits', '[Other] fragment screen']

>  <reference>  (21) 
None

>  <exports>  (21) 
['/opt/xchem-fragalysis-2/maxwin/CHIKV_HIPPO/web_resources/hit_poses.sdf', '/opt/xchem-fragalysis-2/maxwin/CHIKV_HIPPO/web/web_resources/hit_poses.sdf', '/opt/xchem-fragalysis-2/maxwin/CHIKV_HIPPO/web2/web_resources/hit_poses.sdf']

>  <observation_longname>  (21) 
nan

>  <ConformerSites alias>  (21) 
nan

>  <CanonSites alias>  (21) 
nan

>  <CrystalformSites alias>  (21) 
nan

>  <Quatassemblies alias>  (21) 
nan

>  <Crystalforms alias>  (21) 
nan

$$$$
c0300b
     RDKit          3D

 15 16  0  0  0  0  0  0  0  0999 V2000
   18.7270    4.2540   11.5640 O   0  0  0  0  0  0  0  0  0  0  0  0
   17.7180    4.0680   12.2390 C   0  0  0  0  0  0  0  0  0  0  0  0
   16.3760    3.9200   11.5780 C   0  0  0  0  0  0  0  0  0  0  0  0
   15.2180    3.4830   12.4820 C   0  0  0  0  0  0  0  0  0  0  0  0
   17.7870    4.0100   13.5620 N   0  0  0  0  0  0  0  0  0  0  0  0
   16.7260    3.5540   14.4550 C   0  0  0  0  0  0  0  0  0  0  0  0
   15.3780    3.9800   13.9050 C   0  0  1  0  0  0  0  0  0  0  0  0
   15.2720    5.4410   13.9470 N   0  0  0  0  0  0  0  0  0  0  0  0
   15.1290    6.1270   15.0880 C   0  0  0  0  0  0  0  0  0  0  0  0
   15.0710    5.5990   16.1900 O   0  0  0  0  0  0  0  0  0  0  0  0
   15.0360    7.5980   14.9310 C   0  0  0  0  0  0  0  0  0  0  0  0
   15.1980    8.1920   13.6900 N   0  0  0  0  0  0  0  0  0  0  0  0
   15.0270    9.4780   13.8010 C   0  0  0  0  0  0  0  0  0  0  0  0
   14.6720   10.0460   15.3730 S   0  0  0  0  0  0  0  0  0  0  0  0
   14.7580    8.4490   15.9480 C   0  0  0  0  0  0  0  0  0  0  0  0
 10  9  2  0
  9  8  1  0
  7  8  1  6
  7  4  1  0
  4  3  1  0
  3  2  1  0
  2  1  2  0
  5  2  1  0
  6  5  1  0
  7  6  1  0
 11  9  1  0
 11 15  2  0
 15 14  1  0
 14 13  1  0
 13 12  2  0
 12 11  1  0
M  END
>  <id>  (22) 
5810

>  <inchikey>  (22) 
MTDCJLXPYPQTPX-LURJTMIESA-N

>  <alias>  (22) 
c0300b

>  <smiles>  (22) 
O=C1CC[C@H](NC(=O)c2cscn2)CN1

>  <path>  (22) 
/opt/xchem-fragalysis-2/maxwin/CHIKV_Mac_20240920/aligned_files/c0300b/c0300b_hippo.pdb

>  <compound>  (22) 
MTDCJLXPYPQTPX-UHFFFAOYSA-N

>  <target>  (22) 
CHIKV_Mac

>  <tags>  (22) 
['[Other] Oxyanion site', 'hits', '[Other] fragment screen']

>  <reference>  (22) 
None

>  <exports>  (22) 
['/opt/xchem-fragalysis-2/maxwin/CHIKV_HIPPO/web_resources/hit_poses.sdf', '/opt/xchem-fragalysis-2/maxwin/CHIKV_HIPPO/web/web_resources/hit_poses.sdf', '/opt/xchem-fragalysis-2/maxwin/CHIKV_HIPPO/web2/web_resources/hit_poses.sdf']

>  <observation_longname>  (22) 
nan

>  <ConformerSites alias>  (22) 
nan

>  <CanonSites alias>  (22) 
nan

>  <CrystalformSites alias>  (22) 
nan

>  <Quatassemblies alias>  (22) 
nan

>  <Crystalforms alias>  (22) 
nan

$$$$
c0305a
     RDKit          3D

 11 11  0  0  0  0  0  0  0  0999 V2000
   14.8580    0.8190   15.5080 O   0  0  0  0  0  0  0  0  0  0  0  0
   15.9540    1.3400   15.7260 C   0  0  0  0  0  0  0  0  0  0  0  0
   16.4290    2.5440   14.9700 C   0  0  0  0  0  0  0  0  0  0  0  0
   16.8030    0.8890   16.6790 N   0  0  0  0  0  0  0  0  0  0  0  0
   16.6090   -0.2640   17.4820 C   0  0  0  0  0  0  0  0  0  0  0  0
   15.5670   -0.2720   18.4240 C   0  0  0  0  0  0  0  0  0  0  0  0
   14.6060    0.8820   18.5620 C   0  0  0  0  0  0  0  0  0  0  0  0
   15.4140   -1.4170   19.1980 C   0  0  0  0  0  0  0  0  0  0  0  0
   16.2570   -2.4910   19.0040 C   0  0  0  0  0  0  0  0  0  0  0  0
   17.2420   -2.5050   18.1020 N   0  0  0  0  0  0  0  0  0  0  0  0
   17.4070   -1.4020   17.3640 C   0  0  0  0  0  0  0  0  0  0  0  0
  3  2  1  0
  2  1  2  0
  4  2  1  0
  5  4  1  0
  5 11  2  0
 11 10  1  0
 10  9  2  0
  9  8  1  0
  8  6  2  0
  6  5  1  0
  7  6  1  0
M  END
>  <id>  (23) 
5811

>  <inchikey>  (23) 
WRPYDRDMRXJIJA-UHFFFAOYSA-N

>  <alias>  (23) 
c0305a

>  <smiles>  (23) 
CC(=O)Nc1cnccc1C

>  <path>  (23) 
/opt/xchem-fragalysis-2/maxwin/CHIKV_Mac_20240920/aligned_files/c0305a/c0305a_hippo.pdb

>  <compound>  (23) 
WRPYDRDMRXJIJA-UHFFFAOYSA-N

>  <target>  (23) 
CHIKV_Mac

>  <tags>  (23) 
['hits', '[Other] Trp148 site', '[Other] fragment screen']

>  <reference>  (23) 
None

>  <exports>  (23) 
['/opt/xchem-fragalysis-2/maxwin/CHIKV_HIPPO/web_resources/hit_poses.sdf', '/opt/xchem-fragalysis-2/maxwin/CHIKV_HIPPO/web/web_resources/hit_poses.sdf', '/opt/xchem-fragalysis-2/maxwin/CHIKV_HIPPO/web2/web_resources/hit_poses.sdf']

>  <observation_longname>  (23) 
nan

>  <ConformerSites alias>  (23) 
nan

>  <CanonSites alias>  (23) 
nan

>  <CrystalformSites alias>  (23) 
nan

>  <Quatassemblies alias>  (23) 
nan

>  <Crystalforms alias>  (23) 
nan

$$$$
c0312b
     RDKit          3D

 15 16  0  0  0  0  0  0  0  0999 V2000
   17.3910   12.4960   11.8420 O   0  0  0  0  0  0  0  0  0  0  0  0
   16.4650   13.1910   12.1990 C   0  0  0  0  0  0  0  0  0  0  0  0
   16.6540   14.3980   12.7680 N   0  0  0  0  0  0  0  0  0  0  0  0
   15.5710   15.2660   13.2220 C   0  0  0  0  0  0  0  0  0  0  0  0
   17.9970   14.9520   12.9480 C   0  0  0  0  0  0  0  0  0  0  0  0
   15.0210   12.7300   11.9970 C   0  0  0  0  0  0  0  0  0  0  0  0
   14.9710   11.4160   11.3860 N   0  0  0  0  0  0  0  0  0  0  0  0
   15.0940   10.1910   11.9710 C   0  0  0  0  0  0  0  0  0  0  0  0
   15.0740    9.2460   10.9300 C   0  0  0  0  0  0  0  0  0  0  0  0
   14.9180   10.0210    9.7510 C   0  0  0  0  0  0  0  0  0  0  0  0
   14.8460   11.3080   10.0250 N   0  0  0  0  0  0  0  0  0  0  0  0
   15.2110    9.8010   13.3000 C   0  0  0  0  0  0  0  0  0  0  0  0
   15.3180    8.4430   13.5900 C   0  0  0  0  0  0  0  0  0  0  0  0
   15.3060    7.4970   12.5690 C   0  0  0  0  0  0  0  0  0  0  0  0
   15.1850    7.8890   11.2460 C   0  0  0  0  0  0  0  0  0  0  0  0
  5  3  1  0
  4  3  1  0
  3  2  1  0
  2  1  2  0
  6  2  1  0
  7  6  1  0
  7 11  1  0
 11 10  2  0
 10  9  1  0
  9 15  2  0
 15 14  1  0
 14 13  2  0
 13 12  1  0
 12  8  2  0
  8  7  1  0
  9  8  1  0
M  END
>  <id>  (24) 
5812

>  <inchikey>  (24) 
AOLISVCNSODKGB-UHFFFAOYSA-N

>  <alias>  (24) 
c0312b

>  <smiles>  (24) 
CN(C)C(=O)Cn1ncc2ccccc21

>  <path>  (24) 
/opt/xchem-fragalysis-2/maxwin/CHIKV_Mac_20240920/aligned_files/c0312b/c0312b_hippo.pdb

>  <compound>  (24) 
AOLISVCNSODKGB-UHFFFAOYSA-N

>  <target>  (24) 
CHIKV_Mac

>  <tags>  (24) 
['[Other] Adenine site', 'hits', '[Other] fragment screen']

>  <reference>  (24) 
None

>  <exports>  (24) 
['/opt/xchem-fragalysis-2/maxwin/CHIKV_HIPPO/web_resources/hit_poses.sdf', '/opt/xchem-fragalysis-2/maxwin/CHIKV_HIPPO/web/web_resources/hit_poses.sdf', '/opt/xchem-fragalysis-2/maxwin/CHIKV_HIPPO/web2/web_resources/hit_poses.sdf']

>  <observation_longname>  (24) 
nan

>  <ConformerSites alias>  (24) 
nan

>  <CanonSites alias>  (24) 
nan

>  <CrystalformSites alias>  (24) 
nan

>  <Quatassemblies alias>  (24) 
nan

>  <Crystalforms alias>  (24) 
nan

$$$$
c0312c
     RDKit          3D

 15 16  0  0  0  0  0  0  0  0999 V2000
   17.6670   12.3500   11.7930 O   0  0  0  0  0  0  0  0  0  0  0  0
   16.7630   13.0990   12.1430 C   0  0  0  0  0  0  0  0  0  0  0  0
   17.0040   14.2870   12.7280 N   0  0  0  0  0  0  0  0  0  0  0  0
   18.3700   14.7810   12.9020 C   0  0  0  0  0  0  0  0  0  0  0  0
   15.9550   15.1650   13.2580 C   0  0  0  0  0  0  0  0  0  0  0  0
   15.2970   12.7140   11.9390 C   0  0  0  0  0  0  0  0  0  0  0  0
   15.1720   11.3900   11.3670 N   0  0  0  0  0  0  0  0  0  0  0  0
   15.1500   10.1820   11.9960 C   0  0  0  0  0  0  0  0  0  0  0  0
   15.0930    9.2060   10.9850 C   0  0  0  0  0  0  0  0  0  0  0  0
   15.0830    9.9510    9.7770 C   0  0  0  0  0  0  0  0  0  0  0  0
   15.1250   11.2460   10.0050 N   0  0  0  0  0  0  0  0  0  0  0  0
   15.2010    9.8310   13.3420 C   0  0  0  0  0  0  0  0  0  0  0  0
   15.1980    8.4820   13.6750 C   0  0  0  0  0  0  0  0  0  0  0  0
   15.1410    7.5030   12.6850 C   0  0  0  0  0  0  0  0  0  0  0  0
   15.0890    7.8560   11.3450 C   0  0  0  0  0  0  0  0  0  0  0  0
  5  3  1  0
  4  3  1  0
  3  2  1  0
  2  1  2  0
  6  2  1  0
  7  6  1  0
  7 11  1  0
 11 10  2  0
 10  9  1  0
  9 15  2  0
 15 14  1  0
 14 13  2  0
 13 12  1  0
 12  8  2  0
  8  7  1  0
  9  8  1  0
M  END
>  <id>  (25) 
5813

>  <inchikey>  (25) 
AOLISVCNSODKGB-UHFFFAOYSA-N

>  <alias>  (25) 
c0312c

>  <smiles>  (25) 
CN(C)C(=O)Cn1ncc2ccccc21

>  <path>  (25) 
/opt/xchem-fragalysis-2/maxwin/CHIKV_Mac_20240920/aligned_files/c0312c/c0312c_hippo.pdb

>  <compound>  (25) 
AOLISVCNSODKGB-UHFFFAOYSA-N

>  <target>  (25) 
CHIKV_Mac

>  <tags>  (25) 
['[Other] Adenine site', 'hits', '[Other] fragment screen']

>  <reference>  (25) 
None

>  <exports>  (25) 
['/opt/xchem-fragalysis-2/maxwin/CHIKV_HIPPO/web_resources/hit_poses.sdf', '/opt/xchem-fragalysis-2/maxwin/CHIKV_HIPPO/web/web_resources/hit_poses.sdf', '/opt/xchem-fragalysis-2/maxwin/CHIKV_HIPPO/web2/web_resources/hit_poses.sdf']

>  <observation_longname>  (25) 
CHIKV_MacB-x0312_D_401_1_CHIKV_MacB-x2352+C+401+1

>  <ConformerSites alias>  (25) 
1a - c2352/C/401

>  <CanonSites alias>  (25) 
1 - c2352/C/401/1

>  <CrystalformSites alias>  (25) 
F1a - c0270/A/304

>  <Quatassemblies alias>  (25) 
A1 - monomer

>  <Crystalforms alias>  (25) 
F1 - P31-4fold-NCS

$$$$
c0312a
     RDKit          3D

 15 16  0  0  0  0  0  0  0  0999 V2000
   21.3710   14.1020   14.1830 O   0  0  0  0  0  0  0  0  0  0  0  0
   21.0740   15.1620   13.6540 C   0  0  0  0  0  0  0  0  0  0  0  0
   21.9630   16.1630   13.5200 N   0  0  0  0  0  0  0  0  0  0  0  0
   21.6150   17.5830   13.5460 C   0  0  0  0  0  0  0  0  0  0  0  0
   23.3870   15.8790   13.3660 C   0  0  0  0  0  0  0  0  0  0  0  0
   19.6620   15.4120   13.1160 C   0  0  0  0  0  0  0  0  0  0  0  0
   19.1120   14.2400   12.4640 N   0  0  0  0  0  0  0  0  0  0  0  0
   19.7380   13.3090   11.6880 C   0  0  0  0  0  0  0  0  0  0  0  0
   18.7610   12.3650   11.3290 C   0  0  0  0  0  0  0  0  0  0  0  0
   17.5700   12.8360   11.9440 C   0  0  0  0  0  0  0  0  0  0  0  0
   17.7810   13.9500   12.6130 N   0  0  0  0  0  0  0  0  0  0  0  0
   21.0590   13.1800   11.2670 C   0  0  0  0  0  0  0  0  0  0  0  0
   21.4070   12.0820   10.4890 C   0  0  0  0  0  0  0  0  0  0  0  0
   20.4510   11.1360   10.1260 C   0  0  0  0  0  0  0  0  0  0  0  0
   19.1330   11.2730   10.5380 C   0  0  0  0  0  0  0  0  0  0  0  0
  5  3  1  0
  4  3  1  0
  3  2  1  0
  2  1  2  0
  6  2  1  0
  7  6  1  0
  7 11  1  0
 11 10  2  0
 10  9  1  0
  9 15  2  0
 15 14  1  0
 14 13  2  0
 13 12  1  0
 12  8  2  0
  8  7  1  0
  9  8  1  0
M  END
>  <id>  (26) 
5814

>  <inchikey>  (26) 
AOLISVCNSODKGB-UHFFFAOYSA-N

>  <alias>  (26) 
c0312a

>  <smiles>  (26) 
CN(C)C(=O)Cn1ncc2ccccc21

>  <path>  (26) 
/opt/xchem-fragalysis-2/maxwin/CHIKV_Mac_20240920/aligned_files/c0312a/c0312a_hippo.pdb

>  <compound>  (26) 
AOLISVCNSODKGB-UHFFFAOYSA-N

>  <target>  (26) 
CHIKV_Mac

>  <tags>  (26) 
['hits', '[Other] Arg144 pocket', '[Other] fragment screen']

>  <reference>  (26) 
None

>  <exports>  (26) 
['/opt/xchem-fragalysis-2/maxwin/CHIKV_HIPPO/web_resources/hit_poses.sdf', '/opt/xchem-fragalysis-2/maxwin/CHIKV_HIPPO/web/web_resources/hit_poses.sdf', '/opt/xchem-fragalysis-2/maxwin/CHIKV_HIPPO/web2/web_resources/hit_poses.sdf']

>  <observation_longname>  (26) 
nan

>  <ConformerSites alias>  (26) 
nan

>  <CanonSites alias>  (26) 
nan

>  <CrystalformSites alias>  (26) 
nan

>  <Quatassemblies alias>  (26) 
nan

>  <Crystalforms alias>  (26) 
nan

$$$$
c0314b
     RDKit          3D

 10 10  0  0  0  0  0  0  0  0999 V2000
   18.1860    4.3160   11.5760 O   0  0  0  0  0  0  0  0  0  0  0  0
   17.5760    3.8540   12.5400 C   0  0  0  0  0  0  0  0  0  0  0  0
   18.1310    3.5960   13.8310 C   0  0  0  0  0  0  0  0  0  0  0  0
   17.3810    3.0470   14.8170 C   0  0  0  0  0  0  0  0  0  0  0  0
   16.0580    2.7200   14.6750 N   0  0  0  0  0  0  0  0  0  0  0  0
   15.5570    2.9660   13.5030 C   0  0  0  0  0  0  0  0  0  0  0  0
   16.2320    3.4930   12.4350 N   0  0  0  0  0  0  0  0  0  0  0  0
   15.5660    3.6070   11.1230 C   0  0  0  0  0  0  0  0  0  0  0  0
   14.7850    4.8930   10.9790 C   0  0  0  0  0  0  0  0  0  0  0  0
   13.9440    4.8700    9.8170 O   0  0  0  0  0  0  0  0  0  0  0  0
 10  9  1  0
  9  8  1  0
  8  7  1  0
  7  6  1  0
  6  5  2  0
  5  4  1  0
  4  3  2  0
  3  2  1  0
  7  2  1  0
  2  1  2  0
M  END
>  <id>  (27) 
5815

>  <inchikey>  (27) 
HFZYCRPBIIVEAW-UHFFFAOYSA-N

>  <alias>  (27) 
c0314b

>  <smiles>  (27) 
O=c1ccncn1CCO

>  <path>  (27) 
/opt/xchem-fragalysis-2/maxwin/CHIKV_Mac_20240920/aligned_files/c0314b/c0314b_hippo.pdb

>  <compound>  (27) 
HFZYCRPBIIVEAW-UHFFFAOYSA-N

>  <target>  (27) 
CHIKV_Mac

>  <tags>  (27) 
['[Other] Oxyanion site', 'hits', '[Other] Trp148 site', '[Other] fragment screen']

>  <reference>  (27) 
None

>  <exports>  (27) 
['/opt/xchem-fragalysis-2/maxwin/CHIKV_HIPPO/web_resources/hit_poses.sdf', '/opt/xchem-fragalysis-2/maxwin/CHIKV_HIPPO/web/web_resources/hit_poses.sdf', '/opt/xchem-fragalysis-2/maxwin/CHIKV_HIPPO/web2/web_resources/hit_poses.sdf']

>  <observation_longname>  (27) 
nan

>  <ConformerSites alias>  (27) 
nan

>  <CanonSites alias>  (27) 
nan

>  <CrystalformSites alias>  (27) 
nan

>  <Quatassemblies alias>  (27) 
nan

>  <Crystalforms alias>  (27) 
nan

$$$$
c0314c
     RDKit          3D

 10 10  0  0  0  0  0  0  0  0999 V2000
    8.3770    3.7230   14.2920 O   0  0  0  0  0  0  0  0  0  0  0  0
    8.8460    4.8580   14.2980 C   0  0  0  0  0  0  0  0  0  0  0  0
    9.8370    5.3630   13.4120 C   0  0  0  0  0  0  0  0  0  0  0  0
   10.3420    6.6090   13.5670 C   0  0  0  0  0  0  0  0  0  0  0  0
    9.9600    7.4770   14.5600 N   0  0  0  0  0  0  0  0  0  0  0  0
    9.0430    7.0110   15.3500 C   0  0  0  0  0  0  0  0  0  0  0  0
    8.4640    5.7740   15.2700 N   0  0  0  0  0  0  0  0  0  0  0  0
    7.3770    5.4060   16.1890 C   0  0  0  0  0  0  0  0  0  0  0  0
    6.0160    5.7680   15.6400 C   0  0  0  0  0  0  0  0  0  0  0  0
    6.0080    7.0630   15.0800 O   0  0  0  0  0  0  0  0  0  0  0  0
 10  9  1  0
  9  8  1  0
  8  7  1  0
  7  6  1  0
  6  5  2  0
  5  4  1  0
  4  3  2  0
  3  2  1  0
  7  2  1  0
  2  1  2  0
M  END
>  <id>  (28) 
5816

>  <inchikey>  (28) 
HFZYCRPBIIVEAW-UHFFFAOYSA-N

>  <alias>  (28) 
c0314c

>  <smiles>  (28) 
O=c1ccncn1CCO

>  <path>  (28) 
/opt/xchem-fragalysis-2/maxwin/CHIKV_Mac_20240920/aligned_files/c0314c/c0314c_hippo.pdb

>  <compound>  (28) 
HFZYCRPBIIVEAW-UHFFFAOYSA-N

>  <target>  (28) 
CHIKV_Mac

>  <tags>  (28) 
['hits', '[Other] Ribose site', '[Other] Phosphate site', '[Other] fragment screen']

>  <reference>  (28) 
None

>  <exports>  (28) 
['/opt/xchem-fragalysis-2/maxwin/CHIKV_HIPPO/web_resources/hit_poses.sdf', '/opt/xchem-fragalysis-2/maxwin/CHIKV_HIPPO/web/web_resources/hit_poses.sdf', '/opt/xchem-fragalysis-2/maxwin/CHIKV_HIPPO/web2/web_resources/hit_poses.sdf']

>  <observation_longname>  (28) 
nan

>  <ConformerSites alias>  (28) 
nan

>  <CanonSites alias>  (28) 
nan

>  <CrystalformSites alias>  (28) 
nan

>  <Quatassemblies alias>  (28) 
nan

>  <Crystalforms alias>  (28) 
nan

$$$$
c0314a
     RDKit          3D

 10 10  0  0  0  0  0  0  0  0999 V2000
    7.5710    4.0760   15.1220 O   0  0  0  0  0  0  0  0  0  0  0  0
    8.2400    5.0600   14.8240 C   0  0  0  0  0  0  0  0  0  0  0  0
    9.2570    5.1190   13.8250 C   0  0  0  0  0  0  0  0  0  0  0  0
    9.9510    6.2590   13.6050 C   0  0  0  0  0  0  0  0  0  0  0  0
    9.7490    7.4240   14.2970 N   0  0  0  0  0  0  0  0  0  0  0  0
    8.8160    7.3590   15.1960 C   0  0  0  0  0  0  0  0  0  0  0  0
    8.0570    6.2600   15.4910 N   0  0  0  0  0  0  0  0  0  0  0  0
    7.0010    6.3380   16.5130 C   0  0  0  0  0  0  0  0  0  0  0  0
    5.6790    6.7700   15.9280 C   0  0  0  0  0  0  0  0  0  0  0  0
    5.7480    8.1240   15.5100 O   0  0  0  0  0  0  0  0  0  0  0  0
 10  9  1  0
  9  8  1  0
  8  7  1  0
  7  6  1  0
  6  5  2  0
  5  4  1  0
  4  3  2  0
  3  2  1  0
  7  2  1  0
  2  1  2  0
M  END
>  <id>  (29) 
5817

>  <inchikey>  (29) 
HFZYCRPBIIVEAW-UHFFFAOYSA-N

>  <alias>  (29) 
c0314a

>  <smiles>  (29) 
O=c1ccncn1CCO

>  <path>  (29) 
/opt/xchem-fragalysis-2/maxwin/CHIKV_Mac_20240920/aligned_files/c0314a/c0314a_hippo.pdb

>  <compound>  (29) 
HFZYCRPBIIVEAW-UHFFFAOYSA-N

>  <target>  (29) 
CHIKV_Mac

>  <tags>  (29) 
['hits', '[Other] Ribose site', '[Other] Phosphate site', '[Other] fragment screen']

>  <reference>  (29) 
None

>  <exports>  (29) 
['/opt/xchem-fragalysis-2/maxwin/CHIKV_HIPPO/web_resources/hit_poses.sdf', '/opt/xchem-fragalysis-2/maxwin/CHIKV_HIPPO/web/web_resources/hit_poses.sdf', '/opt/xchem-fragalysis-2/maxwin/CHIKV_HIPPO/web2/web_resources/hit_poses.sdf']

>  <observation_longname>  (29) 
CHIKV_MacB-x0314_B_401_1_CHIKV_MacB-x2352+C+401+1

>  <ConformerSites alias>  (29) 
1a - c2352/C/401

>  <CanonSites alias>  (29) 
1 - c2352/C/401/1

>  <CrystalformSites alias>  (29) 
F1a - c0270/A/304

>  <Quatassemblies alias>  (29) 
A1 - monomer

>  <Crystalforms alias>  (29) 
F1 - P31-4fold-NCS

$$$$
c0316a
     RDKit          3D

 15 16  0  0  0  0  0  0  0  0999 V2000
   17.9180    4.3750   11.5210 O   0  0  0  0  0  0  0  0  0  0  0  0
   17.2900    4.0100   12.5090 C   0  0  0  0  0  0  0  0  0  0  0  0
   17.8470    3.8910   13.8210 C   0  0  0  0  0  0  0  0  0  0  0  0
   17.1280    3.3750   14.8560 C   0  0  0  0  0  0  0  0  0  0  0  0
   15.7980    2.9770   14.6650 C   0  0  0  0  0  0  0  0  0  0  0  0
   15.2400    3.1060   13.4430 C   0  0  0  0  0  0  0  0  0  0  0  0
   15.9600    3.5880   12.3770 N   0  0  0  0  0  0  0  0  0  0  0  0
   15.3720    3.5370   11.0350 C   0  0  0  0  0  0  0  0  0  0  0  0
   14.6150    4.7240   10.5360 C   0  0  0  0  0  0  0  0  0  0  0  0
   14.9350    5.9850   10.9590 N   0  0  0  0  0  0  0  0  0  0  0  0
   13.6230    4.6640    9.7000 N   0  0  0  0  0  0  0  0  0  0  0  0
   13.2360    6.0160    9.5630 O   0  0  0  0  0  0  0  0  0  0  0  0
   14.0700    6.7160   10.3450 C   0  0  0  0  0  0  0  0  0  0  0  0
   13.8890    8.1920   10.4410 C   0  0  0  0  0  0  0  0  0  0  0  0
   13.7930    8.9390    9.1600 C   0  0  0  0  0  0  0  0  0  0  0  0
 15 14  1  0
 14 13  1  0
 13 10  2  0
 10  9  1  0
  9  8  1  0
  8  7  1  0
  7  6  1  0
  6  5  2  0
  5  4  1  0
  4  3  2  0
  3  2  1  0
  7  2  1  0
  2  1  2  0
 11  9  2  0
 12 11  1  0
 13 12  1  0
M  END
>  <id>  (30) 
5818

>  <inchikey>  (30) 
LLAHWSDSLKVDNQ-UHFFFAOYSA-N

>  <alias>  (30) 
c0316a

>  <smiles>  (30) 
CCc1nc(Cn2ccccc2=O)no1

>  <path>  (30) 
/opt/xchem-fragalysis-2/maxwin/CHIKV_Mac_20240920/aligned_files/c0316a/c0316a.pdb

>  <compound>  (30) 
LLAHWSDSLKVDNQ-UHFFFAOYSA-N

>  <target>  (30) 
CHIKV_Mac

>  <tags>  (30) 
['[Other] Oxyanion site', 'hits', '[Other] Trp148 site', '[Other] fragment screen']

>  <reference>  (30) 
None

>  <exports>  (30) 
['/opt/xchem-fragalysis-2/maxwin/CHIKV_HIPPO/web_resources/hit_poses.sdf', '/opt/xchem-fragalysis-2/maxwin/CHIKV_HIPPO/web/web_resources/hit_poses.sdf', '/opt/xchem-fragalysis-2/maxwin/CHIKV_HIPPO/web2/web_resources/hit_poses.sdf']

>  <observation_longname>  (30) 
nan

>  <ConformerSites alias>  (30) 
nan

>  <CanonSites alias>  (30) 
nan

>  <CrystalformSites alias>  (30) 
nan

>  <Quatassemblies alias>  (30) 
nan

>  <Crystalforms alias>  (30) 
nan

$$$$
6w8q-a
     RDKit          3D

 14 15  0  0  0  0  0  0  0  0999 V2000
    4.2890    6.5430   15.6130 C   0  0  0  0  0  0  0  0  0  0  0  0
    6.2640    3.5540   13.2150 N   0  0  0  0  0  0  0  0  0  0  0  0
    6.5180    7.1240   16.6070 C   0  0  0  0  0  0  0  0  0  0  0  0
    6.4450    5.1840   15.0190 C   0  0  0  0  0  0  0  0  0  0  0  0
    7.2560    5.8870   16.0910 C   0  0  0  0  0  0  0  0  0  0  0  0
    5.0510    6.8170   16.9050 C   0  0  0  0  0  0  0  0  0  0  0  0
    4.3660    4.8320   13.8140 N   0  0  0  0  0  0  0  0  0  0  0  0
    5.0160    5.4980   14.7820 C   0  0  0  0  0  0  0  0  0  0  0  0
    8.8570    3.2720   15.3830 O   0  0  0  0  0  0  0  0  0  0  0  0
    8.4720    3.7410   14.2950 C   0  0  0  0  0  0  0  0  0  0  0  0
    9.2450    3.8710   13.3250 O   0  0  0  0  0  0  0  0  0  0  0  0
    7.0390    4.1410   14.1520 C   0  0  0  0  0  0  0  0  0  0  0  0
    4.9630    3.8950   13.0570 C   0  0  0  0  0  0  0  0  0  0  0  0
    4.2900    3.3180   12.1760 O   0  0  0  0  0  0  0  0  0  0  0  0
 14 13  2  0
 13  2  1  0
 13  7  1  0
  2 12  2  0
  7  8  1  0
 11 10  2  0
 12 10  1  0
 12  4  1  0
 10  9  1  0
  8  4  2  0
  8  1  1  0
  4  5  1  0
  1  6  1  0
  5  3  1  0
  3  6  1  0
M  END
>  <id>  (31) 
5819

>  <inchikey>  (31) 
STARWXDKVTUOKH-UHFFFAOYSA-N

>  <alias>  (31) 
6w8q-a

>  <smiles>  (31) 
O=C(O)c1nc(=O)[nH]c2c1CCCC2

>  <path>  (31) 
/opt/xchem-fragalysis-2/maxwin/CHIKV_Mac_20240920/aligned_files/6w8q-a/6w8q-a_hippo.pdb

>  <compound>  (31) 
STARWXDKVTUOKH-UHFFFAOYSA-N

>  <target>  (31) 
CHIKV_Mac

>  <tags>  (31) 
['hits', '[Other] external', '[Other] Ribose site', '[Other] Phosphate site']

>  <reference>  (31) 
None

>  <exports>  (31) 
['/opt/xchem-fragalysis-2/maxwin/CHIKV_HIPPO/web_resources/hit_poses.sdf', '/opt/xchem-fragalysis-2/maxwin/CHIKV_HIPPO/web/web_resources/hit_poses.sdf', '/opt/xchem-fragalysis-2/maxwin/CHIKV_HIPPO/web2/web_resources/hit_poses.sdf']

>  <observation_longname>  (31) 
nan

>  <ConformerSites alias>  (31) 
nan

>  <CanonSites alias>  (31) 
nan

>  <CrystalformSites alias>  (31) 
nan

>  <Quatassemblies alias>  (31) 
nan

>  <Crystalforms alias>  (31) 
nan

$$$$
6w8q-b
     RDKit          3D

 14 15  0  0  0  0  0  0  0  0999 V2000
    4.1420    6.3840   15.5350 C   0  0  0  0  0  0  0  0  0  0  0  0
    6.1830    3.3540   13.2670 N   0  0  0  0  0  0  0  0  0  0  0  0
    6.4090    7.0300   16.4790 C   0  0  0  0  0  0  0  0  0  0  0  0
    6.2840    4.9920   15.0870 C   0  0  0  0  0  0  0  0  0  0  0  0
    7.0420    5.6810   16.2040 C   0  0  0  0  0  0  0  0  0  0  0  0
    4.9250    6.8480   16.7630 C   0  0  0  0  0  0  0  0  0  0  0  0
    4.2900    4.6670   13.7590 N   0  0  0  0  0  0  0  0  0  0  0  0
    4.8880    5.3260   14.7630 C   0  0  0  0  0  0  0  0  0  0  0  0
    9.1320    3.6700   13.5730 O   0  0  0  0  0  0  0  0  0  0  0  0
    8.3130    3.5390   14.5030 C   0  0  0  0  0  0  0  0  0  0  0  0
    8.6230    3.0970   15.6270 O   0  0  0  0  0  0  0  0  0  0  0  0
    6.9010    3.9390   14.2550 C   0  0  0  0  0  0  0  0  0  0  0  0
    4.9010    3.7150   13.0300 C   0  0  0  0  0  0  0  0  0  0  0  0
    4.2680    3.1510   12.1050 O   0  0  0  0  0  0  0  0  0  0  0  0
 14 13  2  0
 13  2  1  0
 13  7  1  0
  2 12  2  0
  7  8  1  0
 11 10  2  0
 12 10  1  0
 12  4  1  0
 10  9  1  0
  8  4  2  0
  8  1  1  0
  4  5  1  0
  1  6  1  0
  5  3  1  0
  3  6  1  0
M  END
>  <id>  (32) 
5820

>  <inchikey>  (32) 
STARWXDKVTUOKH-UHFFFAOYSA-N

>  <alias>  (32) 
6w8q-b

>  <smiles>  (32) 
O=C(O)c1nc(=O)[nH]c2c1CCCC2

>  <path>  (32) 
/opt/xchem-fragalysis-2/maxwin/CHIKV_Mac_20240920/aligned_files/6w8q-b/6w8q-b_hippo.pdb

>  <compound>  (32) 
STARWXDKVTUOKH-UHFFFAOYSA-N

>  <target>  (32) 
CHIKV_Mac

>  <tags>  (32) 
['[Other] New', 'hits', '[Other] Ribose site', '[Other] Phosphate site']

>  <reference>  (32) 
None

>  <exports>  (32) 
['/opt/xchem-fragalysis-2/maxwin/CHIKV_HIPPO/web_resources/hit_poses.sdf', '/opt/xchem-fragalysis-2/maxwin/CHIKV_HIPPO/web/web_resources/hit_poses.sdf', '/opt/xchem-fragalysis-2/maxwin/CHIKV_HIPPO/web2/web_resources/hit_poses.sdf']

>  <observation_longname>  (32) 
6w8q_C_201_1_CHIKV_MacB-x2352+C+401+1

>  <ConformerSites alias>  (32) 
1a - c2352/C/401

>  <CanonSites alias>  (32) 
1 - c2352/C/401/1

>  <CrystalformSites alias>  (32) 
F1a - c0270/A/304

>  <Quatassemblies alias>  (32) 
A1 - monomer

>  <Crystalforms alias>  (32) 
F1 - P31-4fold-NCS

$$$$
6w8q-c
     RDKit          3D

 14 15  0  0  0  0  0  0  0  0999 V2000
    4.4530    7.1500   15.8400 C   0  0  0  0  0  0  0  0  0  0  0  0
    6.6140    4.1570   13.6260 N   0  0  0  0  0  0  0  0  0  0  0  0
    6.6160    7.6880   17.0210 C   0  0  0  0  0  0  0  0  0  0  0  0
    6.6120    5.7370   15.4750 C   0  0  0  0  0  0  0  0  0  0  0  0
    7.3040    6.3810   16.6540 C   0  0  0  0  0  0  0  0  0  0  0  0
    5.1110    7.5140   17.1650 C   0  0  0  0  0  0  0  0  0  0  0  0
    4.6830    5.4750   14.0270 N   0  0  0  0  0  0  0  0  0  0  0  0
    5.2330    6.1000   15.0780 C   0  0  0  0  0  0  0  0  0  0  0  0
    8.8710    3.5830   16.0220 O   0  0  0  0  0  0  0  0  0  0  0  0
    8.6730    4.2750   15.0030 C   0  0  0  0  0  0  0  0  0  0  0  0
    9.6080    4.6270   14.2690 O   0  0  0  0  0  0  0  0  0  0  0  0
    7.2820    4.7010   14.6680 C   0  0  0  0  0  0  0  0  0  0  0  0
    5.3530    4.5460   13.3250 C   0  0  0  0  0  0  0  0  0  0  0  0
    4.7860    4.0130   12.3520 O   0  0  0  0  0  0  0  0  0  0  0  0
 14 13  2  0
 13  2  1  0
 13  7  1  0
  2 12  2  0
  7  8  1  0
 11 10  2  0
 12 10  1  0
 12  4  1  0
 10  9  1  0
  8  4  2  0
  8  1  1  0
  4  5  1  0
  1  6  1  0
  5  3  1  0
  3  6  1  0
M  END
>  <id>  (33) 
5821

>  <inchikey>  (33) 
STARWXDKVTUOKH-UHFFFAOYSA-N

>  <alias>  (33) 
6w8q-c

>  <smiles>  (33) 
O=C(O)c1nc(=O)[nH]c2c1CCCC2

>  <path>  (33) 
/opt/xchem-fragalysis-2/maxwin/CHIKV_Mac_20240920/aligned_files/6w8q-c/6w8q-c_hippo.pdb

>  <compound>  (33) 
STARWXDKVTUOKH-UHFFFAOYSA-N

>  <target>  (33) 
CHIKV_Mac

>  <tags>  (33) 
['[Other] New', 'hits', '[Other] Ribose site', '[Other] Phosphate site']

>  <reference>  (33) 
None

>  <exports>  (33) 
['/opt/xchem-fragalysis-2/maxwin/CHIKV_HIPPO/web_resources/hit_poses.sdf', '/opt/xchem-fragalysis-2/maxwin/CHIKV_HIPPO/web/web_resources/hit_poses.sdf', '/opt/xchem-fragalysis-2/maxwin/CHIKV_HIPPO/web2/web_resources/hit_poses.sdf']

>  <observation_longname>  (33) 
nan

>  <ConformerSites alias>  (33) 
nan

>  <CanonSites alias>  (33) 
nan

>  <CrystalformSites alias>  (33) 
nan

>  <Quatassemblies alias>  (33) 
nan

>  <Crystalforms alias>  (33) 
nan

$$$$
6w8q-d
     RDKit          3D

 14 15  0  0  0  0  0  0  0  0999 V2000
    4.8460    7.2140   15.9420 C   0  0  0  0  0  0  0  0  0  0  0  0
    6.5960    3.9740   13.7270 N   0  0  0  0  0  0  0  0  0  0  0  0
    7.1390    7.5830   17.0200 C   0  0  0  0  0  0  0  0  0  0  0  0
    6.8430    5.5980   15.5190 C   0  0  0  0  0  0  0  0  0  0  0  0
    7.6640    6.2050   16.6370 C   0  0  0  0  0  0  0  0  0  0  0  0
    5.6220    7.5910   17.2050 C   0  0  0  0  0  0  0  0  0  0  0  0
    4.8310    5.4700   14.1640 N   0  0  0  0  0  0  0  0  0  0  0  0
    5.4850    6.0760   15.1740 C   0  0  0  0  0  0  0  0  0  0  0  0
    8.9240    3.1390   15.8890 O   0  0  0  0  0  0  0  0  0  0  0  0
    8.7110    3.9250   14.9430 C   0  0  0  0  0  0  0  0  0  0  0  0
    9.6120    4.3100   14.1640 O   0  0  0  0  0  0  0  0  0  0  0  0
    7.3520    4.4740   14.7100 C   0  0  0  0  0  0  0  0  0  0  0  0
    5.3640    4.4610   13.4530 C   0  0  0  0  0  0  0  0  0  0  0  0
    4.7050    3.9380   12.5180 O   0  0  0  0  0  0  0  0  0  0  0  0
 14 13  2  0
 13  2  1  0
 13  7  1  0
  2 12  2  0
  7  8  1  0
 11 10  2  0
 12 10  1  0
 12  4  1  0
 10  9  1  0
  8  4  2  0
  8  1  1  0
  4  5  1  0
  1  6  1  0
  5  3  1  0
  3  6  1  0
M  END
>  <id>  (34) 
5822

>  <inchikey>  (34) 
STARWXDKVTUOKH-UHFFFAOYSA-N

>  <alias>  (34) 
6w8q-d

>  <smiles>  (34) 
O=C(O)c1nc(=O)[nH]c2c1CCCC2

>  <path>  (34) 
/opt/xchem-fragalysis-2/maxwin/CHIKV_Mac_20240920/aligned_files/6w8q-d/6w8q-d_hippo.pdb

>  <compound>  (34) 
STARWXDKVTUOKH-UHFFFAOYSA-N

>  <target>  (34) 
CHIKV_Mac

>  <tags>  (34) 
['hits', '[Other] external', '[Other] Ribose site', '[Other] Phosphate site']

>  <reference>  (34) 
None

>  <exports>  (34) 
['/opt/xchem-fragalysis-2/maxwin/CHIKV_HIPPO/web_resources/hit_poses.sdf', '/opt/xchem-fragalysis-2/maxwin/CHIKV_HIPPO/web/web_resources/hit_poses.sdf', '/opt/xchem-fragalysis-2/maxwin/CHIKV_HIPPO/web2/web_resources/hit_poses.sdf']

>  <observation_longname>  (34) 
nan

>  <ConformerSites alias>  (34) 
nan

>  <CanonSites alias>  (34) 
nan

>  <CrystalformSites alias>  (34) 
nan

>  <Quatassemblies alias>  (34) 
nan

>  <Crystalforms alias>  (34) 
nan

$$$$
c0317a
     RDKit          3D

 10 10  0  0  0  0  0  0  0  0999 V2000
   18.6520    4.2500   11.6030 O   0  0  0  0  0  0  0  0  0  0  0  0
   17.8370    4.0040   12.4930 C   0  0  0  0  0  0  0  0  0  0  0  0
   18.1430    3.3860   13.6550 N   0  0  0  0  0  0  0  0  0  0  0  0
   16.9720    3.1990   14.3790 N   0  0  0  0  0  0  0  0  0  0  0  0
   16.3950    4.2250   12.5080 C   0  0  0  0  0  0  0  0  0  0  0  0
   15.9220    3.6920   13.7000 C   0  0  0  0  0  0  0  0  0  0  0  0
   14.5340    3.5970   14.2410 C   0  0  0  0  0  0  0  0  0  0  0  0
   15.6900    4.9560   11.4000 C   0  0  0  0  0  0  0  0  0  0  0  0
   14.8870    4.0450   10.5100 C   0  0  0  0  0  0  0  0  0  0  0  0
   14.0650    4.8230    9.6270 O   0  0  0  0  0  0  0  0  0  0  0  0
  7  6  1  0
  6  4  1  0
  4  3  1  0
  3  2  1  0
  2  1  2  0
  5  2  1  0
  6  5  2  0
  8  5  1  0
  9  8  1  0
 10  9  1  0
M  END
>  <id>  (35) 
5823

>  <inchikey>  (35) 
DJBJHPDVWKRAJB-UHFFFAOYSA-N

>  <alias>  (35) 
c0317a

>  <smiles>  (35) 
Cc1[nH][nH]c(=O)c1CCO

>  <path>  (35) 
/opt/xchem-fragalysis-2/maxwin/CHIKV_Mac_20240920/aligned_files/c0317a/c0317a.pdb

>  <compound>  (35) 
DJBJHPDVWKRAJB-UHFFFAOYSA-N

>  <target>  (35) 
CHIKV_Mac

>  <tags>  (35) 
['[Other] Oxyanion site', 'hits', '[Other] Trp148 site', '[Other] fragment screen']

>  <reference>  (35) 
None

>  <exports>  (35) 
['/opt/xchem-fragalysis-2/maxwin/CHIKV_HIPPO/web_resources/hit_poses.sdf', '/opt/xchem-fragalysis-2/maxwin/CHIKV_HIPPO/web/web_resources/hit_poses.sdf', '/opt/xchem-fragalysis-2/maxwin/CHIKV_HIPPO/web2/web_resources/hit_poses.sdf']

>  <observation_longname>  (35) 
nan

>  <ConformerSites alias>  (35) 
nan

>  <CanonSites alias>  (35) 
nan

>  <CrystalformSites alias>  (35) 
nan

>  <Quatassemblies alias>  (35) 
nan

>  <Crystalforms alias>  (35) 
nan

$$$$
c0353a
     RDKit          3D

 12 13  0  0  0  0  0  0  0  0999 V2000
   15.3740   10.0200    9.2130 C   0  0  0  0  0  0  0  0  0  0  0  0
   14.8520    9.7900   10.5400 N   0  0  0  0  0  0  0  0  0  0  0  0
   14.6920   10.7700   11.4460 C   0  0  0  0  0  0  0  0  0  0  0  0
   14.8890   10.4900   12.8510 C   0  0  0  0  0  0  0  0  0  0  0  0
   14.6720   11.5580   13.7650 C   0  0  0  0  0  0  0  0  0  0  0  0
   14.2770   12.8130   13.2560 C   0  0  0  0  0  0  0  0  0  0  0  0
   14.1060   12.9620   11.9170 C   0  0  0  0  0  0  0  0  0  0  0  0
   14.3060   11.9800   11.0180 N   0  0  0  0  0  0  0  0  0  0  0  0
   15.2360    9.2190   13.3850 C   0  0  0  0  0  0  0  0  0  0  0  0
   15.3500    9.0260   14.7300 C   0  0  0  0  0  0  0  0  0  0  0  0
   15.1480   10.0720   15.6130 C   0  0  0  0  0  0  0  0  0  0  0  0
   14.8230   11.3160   15.1530 C   0  0  0  0  0  0  0  0  0  0  0  0
  2  1  1  0
  3  2  1  0
  3  8  2  0
  8  7  1  0
  7  6  2  0
  6  5  1  0
  5 12  2  0
 12 11  1  0
 11 10  2  0
 10  9  1  0
  9  4  2  0
  4  3  1  0
  5  4  1  0
M  END
>  <id>  (36) 
5824

>  <inchikey>  (36) 
BILUZSWZYDFPMN-UHFFFAOYSA-N

>  <alias>  (36) 
c0353a

>  <smiles>  (36) 
CNc1nccc2ccccc12

>  <path>  (36) 
/opt/xchem-fragalysis-2/maxwin/CHIKV_Mac_20240920/aligned_files/c0353a/c0353a_hippo.pdb

>  <compound>  (36) 
BILUZSWZYDFPMN-UHFFFAOYSA-N

>  <target>  (36) 
CHIKV_Mac

>  <tags>  (36) 
['[Other] Adenine site', 'hits', '[Other] fragment screen']

>  <reference>  (36) 
None

>  <exports>  (36) 
['/opt/xchem-fragalysis-2/maxwin/CHIKV_HIPPO/web_resources/hit_poses.sdf', '/opt/xchem-fragalysis-2/maxwin/CHIKV_HIPPO/web/web_resources/hit_poses.sdf', '/opt/xchem-fragalysis-2/maxwin/CHIKV_HIPPO/web2/web_resources/hit_poses.sdf']

>  <observation_longname>  (36) 
nan

>  <ConformerSites alias>  (36) 
nan

>  <CanonSites alias>  (36) 
nan

>  <CrystalformSites alias>  (36) 
nan

>  <Quatassemblies alias>  (36) 
nan

>  <Crystalforms alias>  (36) 
nan

$$$$
c0353b
     RDKit          3D

 12 13  0  0  0  0  0  0  0  0999 V2000
   15.8970    8.5700   10.3490 C   0  0  0  0  0  0  0  0  0  0  0  0
   14.8800    9.5760   10.5450 N   0  0  0  0  0  0  0  0  0  0  0  0
   14.9730   10.5560   11.4630 C   0  0  0  0  0  0  0  0  0  0  0  0
   15.0770   10.2370   12.8730 C   0  0  0  0  0  0  0  0  0  0  0  0
   15.0200   11.3280   13.7890 C   0  0  0  0  0  0  0  0  0  0  0  0
   14.8550   12.6340   13.2780 C   0  0  0  0  0  0  0  0  0  0  0  0
   14.7900   12.8170   11.9340 C   0  0  0  0  0  0  0  0  0  0  0  0
   14.8570   11.8200   11.0370 N   0  0  0  0  0  0  0  0  0  0  0  0
   15.2480    8.9300   13.4120 C   0  0  0  0  0  0  0  0  0  0  0  0
   15.3790    8.7310   14.7590 C   0  0  0  0  0  0  0  0  0  0  0  0
   15.3320    9.7990   15.6390 C   0  0  0  0  0  0  0  0  0  0  0  0
   15.1530   11.0700   15.1770 C   0  0  0  0  0  0  0  0  0  0  0  0
  2  1  1  0
  3  2  1  0
  3  8  2  0
  8  7  1  0
  7  6  2  0
  6  5  1  0
  5 12  2  0
 12 11  1  0
 11 10  2  0
 10  9  1  0
  9  4  2  0
  4  3  1  0
  5  4  1  0
M  END
>  <id>  (37) 
5825

>  <inchikey>  (37) 
BILUZSWZYDFPMN-UHFFFAOYSA-N

>  <alias>  (37) 
c0353b

>  <smiles>  (37) 
CNc1nccc2ccccc12

>  <path>  (37) 
/opt/xchem-fragalysis-2/maxwin/CHIKV_Mac_20240920/aligned_files/c0353b/c0353b_hippo.pdb

>  <compound>  (37) 
BILUZSWZYDFPMN-UHFFFAOYSA-N

>  <target>  (37) 
CHIKV_Mac

>  <tags>  (37) 
['[Other] Adenine site', 'hits', '[Other] fragment screen']

>  <reference>  (37) 
None

>  <exports>  (37) 
['/opt/xchem-fragalysis-2/maxwin/CHIKV_HIPPO/web_resources/hit_poses.sdf', '/opt/xchem-fragalysis-2/maxwin/CHIKV_HIPPO/web/web_resources/hit_poses.sdf', '/opt/xchem-fragalysis-2/maxwin/CHIKV_HIPPO/web2/web_resources/hit_poses.sdf']

>  <observation_longname>  (37) 
CHIKV_MacB-x0353_B_304_1_CHIKV_MacB-x2352+C+401+1

>  <ConformerSites alias>  (37) 
1a - c2352/C/401

>  <CanonSites alias>  (37) 
1 - c2352/C/401/1

>  <CrystalformSites alias>  (37) 
F1a - c0270/A/304

>  <Quatassemblies alias>  (37) 
A1 - monomer

>  <Crystalforms alias>  (37) 
F1 - P31-4fold-NCS

$$$$
c0394a
     RDKit          3D

 12 12  0  0  0  0  0  0  0  0999 V2000
   15.2060    7.0090   10.9400 F   0  0  0  0  0  0  0  0  0  0  0  0
   15.2930    8.3220   10.7200 C   0  0  0  0  0  0  0  0  0  0  0  0
   14.3950    8.5900    9.7780 F   0  0  0  0  0  0  0  0  0  0  0  0
   14.9920    9.0820   11.9710 C   0  0  0  0  0  0  0  0  0  0  0  0
   14.7630   10.4910   12.0470 C   0  0  0  0  0  0  0  0  0  0  0  0
   14.7010   11.5230   10.9750 C   0  0  0  0  0  0  0  0  0  0  0  0
   14.4580   12.7730   11.3490 N   0  0  0  0  0  0  0  0  0  0  0  0
   14.8730   11.1970    9.7890 O   0  0  0  0  0  0  0  0  0  0  0  0
   14.6090   10.7300   13.3950 C   0  0  0  0  0  0  0  0  0  0  0  0
   14.9700    8.5230   13.1590 N   0  0  0  0  0  0  0  0  0  0  0  0
   14.7440    9.5500   14.0170 N   0  0  0  0  0  0  0  0  0  0  0  0
   14.7130    9.2900   15.4510 C   0  0  0  0  0  0  0  0  0  0  0  0
 12 11  1  0
 11  9  1  0
  9  5  2  0
  6  5  1  0
  8  6  2  0
  7  6  1  0
  5  4  1  0
 10  4  2  0
 11 10  1  0
  4  2  1  0
  3  2  1  0
  2  1  1  0
M  END
>  <id>  (38) 
5826

>  <inchikey>  (38) 
XNXCINUKGNQCEZ-UHFFFAOYSA-N

>  <alias>  (38) 
c0394a

>  <smiles>  (38) 
Cn1cc(C(N)=O)c(C(F)F)n1

>  <path>  (38) 
/opt/xchem-fragalysis-2/maxwin/CHIKV_Mac_20240920/aligned_files/c0394a/c0394a.pdb

>  <compound>  (38) 
XNXCINUKGNQCEZ-UHFFFAOYSA-N

>  <target>  (38) 
CHIKV_Mac

>  <tags>  (38) 
['[Other] Adenine site', 'hits', '[Other] fragment screen']

>  <reference>  (38) 
None

>  <exports>  (38) 
['/opt/xchem-fragalysis-2/maxwin/CHIKV_HIPPO/web_resources/hit_poses.sdf', '/opt/xchem-fragalysis-2/maxwin/CHIKV_HIPPO/web/web_resources/hit_poses.sdf', '/opt/xchem-fragalysis-2/maxwin/CHIKV_HIPPO/web2/web_resources/hit_poses.sdf']

>  <observation_longname>  (38) 
nan

>  <ConformerSites alias>  (38) 
nan

>  <CanonSites alias>  (38) 
nan

>  <CrystalformSites alias>  (38) 
nan

>  <Quatassemblies alias>  (38) 
nan

>  <Crystalforms alias>  (38) 
nan

$$$$
c0398a
     RDKit          3D

 15 16  0  0  0  0  0  0  0  0999 V2000
   14.8510    0.7800   18.2790 F   0  0  0  0  0  0  0  0  0  0  0  0
   15.7370   -0.2540   18.2590 C   0  0  0  0  0  0  0  0  0  0  0  0
   15.5390   -1.3050   19.1190 C   0  0  0  0  0  0  0  0  0  0  0  0
   16.4100   -2.3800   19.0590 C   0  0  0  0  0  0  0  0  0  0  0  0
   17.4530   -2.3920   18.1480 C   0  0  0  0  0  0  0  0  0  0  0  0
   17.6560   -1.3220   17.2870 C   0  0  0  0  0  0  0  0  0  0  0  0
   16.8030   -0.2240   17.3290 C   0  0  0  0  0  0  0  0  0  0  0  0
   16.9260    0.8180   16.3430 N   0  0  0  0  0  0  0  0  0  0  0  0
   18.2370    1.3870   15.9790 C   0  0  0  0  0  0  0  0  0  0  0  0
   17.8670    2.7100   15.3250 C   0  0  0  0  0  0  0  0  0  0  0  0
   15.8960    1.3400   15.6100 C   0  0  0  0  0  0  0  0  0  0  0  0
   14.7460    0.9370   15.6140 O   0  0  0  0  0  0  0  0  0  0  0  0
   16.4410    2.5030   14.7920 C   0  0  1  0  0  0  0  0  0  0  0  0
   15.5670    3.6750   14.9010 N   0  0  0  0  0  0  0  0  0  0  0  0
   14.5100    3.8670   13.9070 C   0  0  0  0  0  0  0  0  0  0  0  0
 15 14  1  0
 13 14  1  1
 13 10  1  0
 10  9  1  0
  9  8  1  0
 11  8  1  0
 13 11  1  0
 12 11  2  0
  8  7  1  0
  7  6  2  0
  6  5  1  0
  5  4  2  0
  4  3  1  0
  3  2  2  0
  7  2  1  0
  2  1  1  0
M  END
>  <id>  (39) 
5827

>  <inchikey>  (39) 
LXSCPIWTZCIAIQ-VIFPVBQESA-N

>  <alias>  (39) 
c0398a

>  <smiles>  (39) 
CN[C@H]1CCN(c2ccccc2F)C1=O

>  <path>  (39) 
/opt/xchem-fragalysis-2/maxwin/CHIKV_Mac_20240920/aligned_files/c0398a/c0398a.pdb

>  <compound>  (39) 
LXSCPIWTZCIAIQ-UHFFFAOYSA-N

>  <target>  (39) 
CHIKV_Mac

>  <tags>  (39) 
['hits', '[Other] Trp148 site', '[Other] fragment screen']

>  <reference>  (39) 
None

>  <exports>  (39) 
['/opt/xchem-fragalysis-2/maxwin/CHIKV_HIPPO/web_resources/hit_poses.sdf', '/opt/xchem-fragalysis-2/maxwin/CHIKV_HIPPO/web/web_resources/hit_poses.sdf', '/opt/xchem-fragalysis-2/maxwin/CHIKV_HIPPO/web2/web_resources/hit_poses.sdf']

>  <observation_longname>  (39) 
nan

>  <ConformerSites alias>  (39) 
nan

>  <CanonSites alias>  (39) 
nan

>  <CrystalformSites alias>  (39) 
nan

>  <Quatassemblies alias>  (39) 
nan

>  <Crystalforms alias>  (39) 
nan

$$$$
c0399a
     RDKit          3D

 13 14  0  0  0  0  0  0  0  0999 V2000
   14.5710   11.9370   10.1760 O   0  0  0  0  0  0  0  0  0  0  0  0
   14.7360   11.0090   10.9580 C   0  0  0  0  0  0  0  0  0  0  0  0
   14.8930    9.7590   10.5350 N   0  0  0  0  0  0  0  0  0  0  0  0
   14.8850    9.4300    9.1180 C   0  0  0  0  0  0  0  0  0  0  0  0
   14.7750   11.2760   12.4360 C   0  0  0  0  0  0  0  0  0  0  0  0
   14.8370   12.5910   12.9290 C   0  0  0  0  0  0  0  0  0  0  0  0
   14.9070   13.7820   12.2580 N   0  0  0  0  0  0  0  0  0  0  0  0
   15.0230   14.7950   13.1790 C   0  0  0  0  0  0  0  0  0  0  0  0
   15.0180   14.2860   14.4350 C   0  0  0  0  0  0  0  0  0  0  0  0
   14.9010   12.8720   14.3130 C   0  0  0  0  0  0  0  0  0  0  0  0
   14.8950   11.7950   15.2080 C   0  0  0  0  0  0  0  0  0  0  0  0
   14.8260   10.4990   14.7380 C   0  0  0  0  0  0  0  0  0  0  0  0
   14.7660   10.2370   13.3730 C   0  0  0  0  0  0  0  0  0  0  0  0
  4  3  1  0
  3  2  1  0
  2  1  2  0
  5  2  1  0
  5 13  2  0
 13 12  1  0
 12 11  2  0
 11 10  1  0
 10  9  1  0
  9  8  2  0
  8  7  1  0
  7  6  1  0
  6  5  1  0
 10  6  2  0
M  END
>  <id>  (40) 
5828

>  <inchikey>  (40) 
OKVUYVXDTGOYRU-UHFFFAOYSA-N

>  <alias>  (40) 
c0399a

>  <smiles>  (40) 
CNC(=O)c1cccc2cc[nH]c12

>  <path>  (40) 
/opt/xchem-fragalysis-2/maxwin/CHIKV_Mac_20240920/aligned_files/c0399a/c0399a_hippo.pdb

>  <compound>  (40) 
OKVUYVXDTGOYRU-UHFFFAOYSA-N

>  <target>  (40) 
CHIKV_Mac

>  <tags>  (40) 
['[Other] Adenine site', 'hits', '[Other] fragment screen']

>  <reference>  (40) 
None

>  <exports>  (40) 
['/opt/xchem-fragalysis-2/maxwin/CHIKV_HIPPO/web_resources/hit_poses.sdf', '/opt/xchem-fragalysis-2/maxwin/CHIKV_HIPPO/web/web_resources/hit_poses.sdf', '/opt/xchem-fragalysis-2/maxwin/CHIKV_HIPPO/web2/web_resources/hit_poses.sdf']

>  <observation_longname>  (40) 
nan

>  <ConformerSites alias>  (40) 
nan

>  <CanonSites alias>  (40) 
nan

>  <CrystalformSites alias>  (40) 
nan

>  <Quatassemblies alias>  (40) 
nan

>  <Crystalforms alias>  (40) 
nan

$$$$
c0399b
     RDKit          3D

 13 14  0  0  0  0  0  0  0  0999 V2000
   22.0990   15.3680   12.8870 O   0  0  0  0  0  0  0  0  0  0  0  0
   22.6070   14.2880   12.5920 C   0  0  0  0  0  0  0  0  0  0  0  0
   23.8590   13.9750   12.9190 N   0  0  0  0  0  0  0  0  0  0  0  0
   24.8390   14.9920   13.2550 C   0  0  0  0  0  0  0  0  0  0  0  0
   21.8270   13.2600   11.8330 C   0  0  0  0  0  0  0  0  0  0  0  0
   20.4280   13.2060   11.9250 C   0  0  0  0  0  0  0  0  0  0  0  0
   19.5560   13.9530   12.6830 N   0  0  0  0  0  0  0  0  0  0  0  0
   18.2800   13.5190   12.4370 C   0  0  0  0  0  0  0  0  0  0  0  0
   18.2950   12.5100   11.5310 C   0  0  0  0  0  0  0  0  0  0  0  0
   19.6680   12.2760   11.1860 C   0  0  0  0  0  0  0  0  0  0  0  0
   20.3410   11.3900   10.3400 C   0  0  0  0  0  0  0  0  0  0  0  0
   21.7260   11.4280   10.2490 C   0  0  0  0  0  0  0  0  0  0  0  0
   22.4610   12.3450   10.9870 C   0  0  0  0  0  0  0  0  0  0  0  0
  4  3  1  0
  3  2  1  0
  2  1  2  0
  5  2  1  0
  5 13  2  0
 13 12  1  0
 12 11  2  0
 11 10  1  0
 10  9  1  0
  9  8  2  0
  8  7  1  0
  7  6  1  0
  6  5  1  0
 10  6  2  0
M  END
>  <id>  (41) 
5829

>  <inchikey>  (41) 
OKVUYVXDTGOYRU-UHFFFAOYSA-N

>  <alias>  (41) 
c0399b

>  <smiles>  (41) 
CNC(=O)c1cccc2cc[nH]c12

>  <path>  (41) 
/opt/xchem-fragalysis-2/maxwin/CHIKV_Mac_20240920/aligned_files/c0399b/c0399b_hippo.pdb

>  <compound>  (41) 
OKVUYVXDTGOYRU-UHFFFAOYSA-N

>  <target>  (41) 
CHIKV_Mac

>  <tags>  (41) 
['hits', '[Other] Arg144 pocket', '[Other] fragment screen']

>  <reference>  (41) 
None

>  <exports>  (41) 
['/opt/xchem-fragalysis-2/maxwin/CHIKV_HIPPO/web_resources/hit_poses.sdf', '/opt/xchem-fragalysis-2/maxwin/CHIKV_HIPPO/web/web_resources/hit_poses.sdf', '/opt/xchem-fragalysis-2/maxwin/CHIKV_HIPPO/web2/web_resources/hit_poses.sdf']

>  <observation_longname>  (41) 
CHIKV_MacB-x0399_A_402_1_CHIKV_MacB-x2352+C+401+1

>  <ConformerSites alias>  (41) 
1a - c2352/C/401

>  <CanonSites alias>  (41) 
1 - c2352/C/401/1

>  <CrystalformSites alias>  (41) 
F1a - c0270/A/304

>  <Quatassemblies alias>  (41) 
A1 - monomer

>  <Crystalforms alias>  (41) 
F1 - P31-4fold-NCS

$$$$
c0399c
     RDKit          3D

 13 14  0  0  0  0  0  0  0  0999 V2000
   14.6000   11.9260   10.2540 O   0  0  0  0  0  0  0  0  0  0  0  0
   14.9320   11.0310   11.0290 C   0  0  0  0  0  0  0  0  0  0  0  0
   15.2980    9.8240   10.6070 N   0  0  0  0  0  0  0  0  0  0  0  0
   14.9740    9.3520    9.2720 C   0  0  0  0  0  0  0  0  0  0  0  0
   14.9700   11.2830   12.5080 C   0  0  0  0  0  0  0  0  0  0  0  0
   15.0400   12.5920   13.0130 C   0  0  0  0  0  0  0  0  0  0  0  0
   14.9810   13.8000   12.3610 N   0  0  0  0  0  0  0  0  0  0  0  0
   15.1380   14.8040   13.2850 C   0  0  0  0  0  0  0  0  0  0  0  0
   15.2810   14.2780   14.5270 C   0  0  0  0  0  0  0  0  0  0  0  0
   15.2110   12.8530   14.3900 C   0  0  0  0  0  0  0  0  0  0  0  0
   15.2620   11.7670   15.2670 C   0  0  0  0  0  0  0  0  0  0  0  0
   15.1520   10.4710   14.7860 C   0  0  0  0  0  0  0  0  0  0  0  0
   15.0110   10.2270   13.4240 C   0  0  0  0  0  0  0  0  0  0  0  0
  4  3  1  0
  3  2  1  0
  2  1  2  0
  5  2  1  0
  5 13  2  0
 13 12  1  0
 12 11  2  0
 11 10  1  0
 10  9  1  0
  9  8  2  0
  8  7  1  0
  7  6  1  0
  6  5  1  0
 10  6  2  0
M  END
>  <id>  (42) 
5830

>  <inchikey>  (42) 
OKVUYVXDTGOYRU-UHFFFAOYSA-N

>  <alias>  (42) 
c0399c

>  <smiles>  (42) 
CNC(=O)c1cccc2cc[nH]c12

>  <path>  (42) 
/opt/xchem-fragalysis-2/maxwin/CHIKV_Mac_20240920/aligned_files/c0399c/c0399c_hippo.pdb

>  <compound>  (42) 
OKVUYVXDTGOYRU-UHFFFAOYSA-N

>  <target>  (42) 
CHIKV_Mac

>  <tags>  (42) 
['[Other] Adenine site', 'hits', '[Other] fragment screen']

>  <reference>  (42) 
None

>  <exports>  (42) 
['/opt/xchem-fragalysis-2/maxwin/CHIKV_HIPPO/web_resources/hit_poses.sdf', '/opt/xchem-fragalysis-2/maxwin/CHIKV_HIPPO/web/web_resources/hit_poses.sdf', '/opt/xchem-fragalysis-2/maxwin/CHIKV_HIPPO/web2/web_resources/hit_poses.sdf']

>  <observation_longname>  (42) 
nan

>  <ConformerSites alias>  (42) 
nan

>  <CanonSites alias>  (42) 
nan

>  <CrystalformSites alias>  (42) 
nan

>  <Quatassemblies alias>  (42) 
nan

>  <Crystalforms alias>  (42) 
nan

$$$$
c0399d
     RDKit          3D

 13 14  0  0  0  0  0  0  0  0999 V2000
   21.4210   15.9740   11.4540 O   0  0  0  0  0  0  0  0  0  0  0  0
   20.5040   15.4340   12.0670 C   0  0  0  0  0  0  0  0  0  0  0  0
   19.7830   16.0770   12.9840 N   0  0  0  0  0  0  0  0  0  0  0  0
   18.6590   16.9210   12.6220 C   0  0  0  0  0  0  0  0  0  0  0  0
   20.1300   14.0090   11.7920 C   0  0  0  0  0  0  0  0  0  0  0  0
   21.0820   13.0570   11.3870 C   0  0  0  0  0  0  0  0  0  0  0  0
   22.4500   13.1500   11.2760 N   0  0  0  0  0  0  0  0  0  0  0  0
   22.9360   11.9400   10.8520 C   0  0  0  0  0  0  0  0  0  0  0  0
   21.9170   11.0600   10.6800 C   0  0  0  0  0  0  0  0  0  0  0  0
   20.7090   11.7470   11.0170 C   0  0  0  0  0  0  0  0  0  0  0  0
   19.3550   11.4040   11.0630 C   0  0  0  0  0  0  0  0  0  0  0  0
   18.4130   12.3290   11.4840 C   0  0  0  0  0  0  0  0  0  0  0  0
   18.7920   13.6130   11.8560 C   0  0  0  0  0  0  0  0  0  0  0  0
  4  3  1  0
  3  2  1  0
  2  1  2  0
  5  2  1  0
  5 13  2  0
 13 12  1  0
 12 11  2  0
 11 10  1  0
 10  9  1  0
  9  8  2  0
  8  7  1  0
  7  6  1  0
  6  5  1  0
 10  6  2  0
M  END
>  <id>  (43) 
5831

>  <inchikey>  (43) 
OKVUYVXDTGOYRU-UHFFFAOYSA-N

>  <alias>  (43) 
c0399d

>  <smiles>  (43) 
CNC(=O)c1cccc2cc[nH]c12

>  <path>  (43) 
/opt/xchem-fragalysis-2/maxwin/CHIKV_Mac_20240920/aligned_files/c0399d/c0399d_hippo.pdb

>  <compound>  (43) 
OKVUYVXDTGOYRU-UHFFFAOYSA-N

>  <target>  (43) 
CHIKV_Mac

>  <tags>  (43) 
['hits', '[Other] Arg144 pocket', '[Other] fragment screen']

>  <reference>  (43) 
None

>  <exports>  (43) 
['/opt/xchem-fragalysis-2/maxwin/CHIKV_HIPPO/web_resources/hit_poses.sdf', '/opt/xchem-fragalysis-2/maxwin/CHIKV_HIPPO/web/web_resources/hit_poses.sdf', '/opt/xchem-fragalysis-2/maxwin/CHIKV_HIPPO/web2/web_resources/hit_poses.sdf']

>  <observation_longname>  (43) 
CHIKV_MacB-x0399_B_402_1_CHIKV_MacB-x2352+C+401+1

>  <ConformerSites alias>  (43) 
1a - c2352/C/401

>  <CanonSites alias>  (43) 
1 - c2352/C/401/1

>  <CrystalformSites alias>  (43) 
F1a - c0270/A/304

>  <Quatassemblies alias>  (43) 
A1 - monomer

>  <Crystalforms alias>  (43) 
F1 - P31-4fold-NCS

$$$$
c0399f
     RDKit          3D

 13 14  0  0  0  0  0  0  0  0999 V2000
   23.6480   15.1080   12.3610 O   0  0  0  0  0  0  0  0  0  0  0  0
   22.4410   14.9410   12.2110 C   0  0  0  0  0  0  0  0  0  0  0  0
   21.5420   15.7510   12.7660 N   0  0  0  0  0  0  0  0  0  0  0  0
   21.4850   15.9670   14.2010 C   0  0  0  0  0  0  0  0  0  0  0  0
   21.9200   13.8030   11.3790 C   0  0  0  0  0  0  0  0  0  0  0  0
   20.5880   13.3600   11.4650 C   0  0  0  0  0  0  0  0  0  0  0  0
   19.5350   13.8220   12.2170 N   0  0  0  0  0  0  0  0  0  0  0  0
   18.4310   13.0620   11.9330 C   0  0  0  0  0  0  0  0  0  0  0  0
   18.7370   12.1160   11.0100 C   0  0  0  0  0  0  0  0  0  0  0  0
   20.1220   12.2710   10.6960 C   0  0  0  0  0  0  0  0  0  0  0  0
   21.0210   11.6170    9.8520 C   0  0  0  0  0  0  0  0  0  0  0  0
   22.3330   12.0540    9.7550 C   0  0  0  0  0  0  0  0  0  0  0  0
   22.7770   13.1360   10.5020 C   0  0  0  0  0  0  0  0  0  0  0  0
  4  3  1  0
  3  2  1  0
  2  1  2  0
  5  2  1  0
  5 13  2  0
 13 12  1  0
 12 11  2  0
 11 10  1  0
 10  9  1  0
  9  8  2  0
  8  7  1  0
  7  6  1  0
  6  5  1  0
 10  6  2  0
M  END
>  <id>  (44) 
5832

>  <inchikey>  (44) 
OKVUYVXDTGOYRU-UHFFFAOYSA-N

>  <alias>  (44) 
c0399f

>  <smiles>  (44) 
CNC(=O)c1cccc2cc[nH]c12

>  <path>  (44) 
/opt/xchem-fragalysis-2/maxwin/CHIKV_Mac_20240920/aligned_files/c0399f/c0399f_hippo.pdb

>  <compound>  (44) 
OKVUYVXDTGOYRU-UHFFFAOYSA-N

>  <target>  (44) 
CHIKV_Mac

>  <tags>  (44) 
['hits', '[Other] Arg144 pocket', '[Other] fragment screen']

>  <reference>  (44) 
None

>  <exports>  (44) 
['/opt/xchem-fragalysis-2/maxwin/CHIKV_HIPPO/web_resources/hit_poses.sdf', '/opt/xchem-fragalysis-2/maxwin/CHIKV_HIPPO/web/web_resources/hit_poses.sdf', '/opt/xchem-fragalysis-2/maxwin/CHIKV_HIPPO/web2/web_resources/hit_poses.sdf']

>  <observation_longname>  (44) 
nan

>  <ConformerSites alias>  (44) 
nan

>  <CanonSites alias>  (44) 
nan

>  <CrystalformSites alias>  (44) 
nan

>  <Quatassemblies alias>  (44) 
nan

>  <Crystalforms alias>  (44) 
nan

$$$$
c0399e
     RDKit          3D

 13 14  0  0  0  0  0  0  0  0999 V2000
   14.8780   11.9590   10.0700 O   0  0  0  0  0  0  0  0  0  0  0  0
   14.8550   11.0890   10.9390 C   0  0  0  0  0  0  0  0  0  0  0  0
   14.9060    9.7930   10.6390 N   0  0  0  0  0  0  0  0  0  0  0  0
   14.8700    9.3170    9.2660 C   0  0  0  0  0  0  0  0  0  0  0  0
   14.7960   11.4720   12.3910 C   0  0  0  0  0  0  0  0  0  0  0  0
   14.9150   12.8170   12.7930 C   0  0  0  0  0  0  0  0  0  0  0  0
   15.0560   13.9590   12.0420 N   0  0  0  0  0  0  0  0  0  0  0  0
   15.1700   15.0320   12.8910 C   0  0  0  0  0  0  0  0  0  0  0  0
   15.0890   14.6190   14.1790 C   0  0  0  0  0  0  0  0  0  0  0  0
   14.9220   13.1950   14.1540 C   0  0  0  0  0  0  0  0  0  0  0  0
   14.7880   12.1940   15.1220 C   0  0  0  0  0  0  0  0  0  0  0  0
   14.6640   10.8670   14.7400 C   0  0  0  0  0  0  0  0  0  0  0  0
   14.6690   10.5070   13.3980 C   0  0  0  0  0  0  0  0  0  0  0  0
  4  3  1  0
  3  2  1  0
  2  1  2  0
  5  2  1  0
  5 13  2  0
 13 12  1  0
 12 11  2  0
 11 10  1  0
 10  9  1  0
  9  8  2  0
  8  7  1  0
  7  6  1  0
  6  5  1  0
 10  6  2  0
M  END
>  <id>  (45) 
5833

>  <inchikey>  (45) 
OKVUYVXDTGOYRU-UHFFFAOYSA-N

>  <alias>  (45) 
c0399e

>  <smiles>  (45) 
CNC(=O)c1cccc2cc[nH]c12

>  <path>  (45) 
/opt/xchem-fragalysis-2/maxwin/CHIKV_Mac_20240920/aligned_files/c0399e/c0399e_hippo.pdb

>  <compound>  (45) 
OKVUYVXDTGOYRU-UHFFFAOYSA-N

>  <target>  (45) 
CHIKV_Mac

>  <tags>  (45) 
['[Other] Adenine site', 'hits', '[Other] fragment screen']

>  <reference>  (45) 
None

>  <exports>  (45) 
['/opt/xchem-fragalysis-2/maxwin/CHIKV_HIPPO/web_resources/hit_poses.sdf', '/opt/xchem-fragalysis-2/maxwin/CHIKV_HIPPO/web/web_resources/hit_poses.sdf', '/opt/xchem-fragalysis-2/maxwin/CHIKV_HIPPO/web2/web_resources/hit_poses.sdf']

>  <observation_longname>  (45) 
nan

>  <ConformerSites alias>  (45) 
nan

>  <CanonSites alias>  (45) 
nan

>  <CrystalformSites alias>  (45) 
nan

>  <Quatassemblies alias>  (45) 
nan

>  <Crystalforms alias>  (45) 
nan

$$$$
c0399g
     RDKit          3D

 13 14  0  0  0  0  0  0  0  0999 V2000
   14.6940   11.8600   10.3070 O   0  0  0  0  0  0  0  0  0  0  0  0
   14.8300   10.9060   11.0710 C   0  0  0  0  0  0  0  0  0  0  0  0
   14.9370    9.6540   10.6320 N   0  0  0  0  0  0  0  0  0  0  0  0
   15.1320    9.3470    9.2260 C   0  0  0  0  0  0  0  0  0  0  0  0
   14.8760   11.1440   12.5490 C   0  0  0  0  0  0  0  0  0  0  0  0
   14.9720   12.4530   13.0460 C   0  0  0  0  0  0  0  0  0  0  0  0
   15.0540   13.6530   12.3760 N   0  0  0  0  0  0  0  0  0  0  0  0
   15.1270   14.6620   13.3000 C   0  0  0  0  0  0  0  0  0  0  0  0
   15.0830   14.1510   14.5570 C   0  0  0  0  0  0  0  0  0  0  0  0
   14.9930   12.7280   14.4270 C   0  0  0  0  0  0  0  0  0  0  0  0
   14.9310   11.6510   15.3180 C   0  0  0  0  0  0  0  0  0  0  0  0
   14.8470   10.3520   14.8410 C   0  0  0  0  0  0  0  0  0  0  0  0
   14.8140   10.0960   13.4780 C   0  0  0  0  0  0  0  0  0  0  0  0
  4  3  1  0
  3  2  1  0
  2  1  2  0
  5  2  1  0
  5 13  2  0
 13 12  1  0
 12 11  2  0
 11 10  1  0
 10  9  1  0
  9  8  2  0
  8  7  1  0
  7  6  1  0
  6  5  1  0
 10  6  2  0
M  END
>  <id>  (46) 
5834

>  <inchikey>  (46) 
OKVUYVXDTGOYRU-UHFFFAOYSA-N

>  <alias>  (46) 
c0399g

>  <smiles>  (46) 
CNC(=O)c1cccc2cc[nH]c12

>  <path>  (46) 
/opt/xchem-fragalysis-2/maxwin/CHIKV_Mac_20240920/aligned_files/c0399g/c0399g_hippo.pdb

>  <compound>  (46) 
OKVUYVXDTGOYRU-UHFFFAOYSA-N

>  <target>  (46) 
CHIKV_Mac

>  <tags>  (46) 
['[Other] Adenine site', 'hits', '[Other] fragment screen']

>  <reference>  (46) 
None

>  <exports>  (46) 
['/opt/xchem-fragalysis-2/maxwin/CHIKV_HIPPO/web_resources/hit_poses.sdf', '/opt/xchem-fragalysis-2/maxwin/CHIKV_HIPPO/web/web_resources/hit_poses.sdf', '/opt/xchem-fragalysis-2/maxwin/CHIKV_HIPPO/web2/web_resources/hit_poses.sdf']

>  <observation_longname>  (46) 
nan

>  <ConformerSites alias>  (46) 
nan

>  <CanonSites alias>  (46) 
nan

>  <CrystalformSites alias>  (46) 
nan

>  <Quatassemblies alias>  (46) 
nan

>  <Crystalforms alias>  (46) 
nan

$$$$
c0404a
     RDKit          3D

 11 11  0  0  0  0  0  0  0  0999 V2000
   14.4800   11.3640   10.4590 O   0  0  0  0  0  0  0  0  0  0  0  0
   14.4190   12.0010   11.5210 C   0  0  0  0  0  0  0  0  0  0  0  0
   14.1530   13.3020   11.5750 N   0  0  0  0  0  0  0  0  0  0  0  0
   14.6190   11.3160   12.8280 C   0  0  0  0  0  0  0  0  0  0  0  0
   15.0540    9.9990   13.0550 C   0  0  0  0  0  0  0  0  0  0  0  0
   14.3310   11.9420   13.9520 N   0  0  0  0  0  0  0  0  0  0  0  0
   14.5800   10.9840   14.9720 O   0  0  0  0  0  0  0  0  0  0  0  0
   15.0030    9.8420   14.3870 C   0  0  0  0  0  0  0  0  0  0  0  0
   15.2740    8.7090   15.3090 C   0  0  0  0  0  0  0  0  0  0  0  0
   14.8140    7.4990   14.7340 O   0  0  0  0  0  0  0  0  0  0  0  0
   15.8570    6.7520   14.1230 C   0  0  0  0  0  0  0  0  0  0  0  0
 11 10  1  0
 10  9  1  0
  9  8  1  0
  8  5  2  0
  5  4  1  0
  6  4  2  0
  7  6  1  0
  8  7  1  0
  4  2  1  0
  2  1  2  0
  3  2  1  0
M  END
>  <id>  (47) 
5835

>  <inchikey>  (47) 
XJISISZPFKFZEU-UHFFFAOYSA-N

>  <alias>  (47) 
c0404a

>  <smiles>  (47) 
COCc1cc(C(N)=O)no1

>  <path>  (47) 
/opt/xchem-fragalysis-2/maxwin/CHIKV_Mac_20240920/aligned_files/c0404a/c0404a_hippo.pdb

>  <compound>  (47) 
XJISISZPFKFZEU-UHFFFAOYSA-N

>  <target>  (47) 
CHIKV_Mac

>  <tags>  (47) 
['[Other] Adenine site', 'hits', '[Other] fragment screen']

>  <reference>  (47) 
None

>  <exports>  (47) 
['/opt/xchem-fragalysis-2/maxwin/CHIKV_HIPPO/web_resources/hit_poses.sdf', '/opt/xchem-fragalysis-2/maxwin/CHIKV_HIPPO/web/web_resources/hit_poses.sdf', '/opt/xchem-fragalysis-2/maxwin/CHIKV_HIPPO/web2/web_resources/hit_poses.sdf']

>  <observation_longname>  (47) 
nan

>  <ConformerSites alias>  (47) 
nan

>  <CanonSites alias>  (47) 
nan

>  <CrystalformSites alias>  (47) 
nan

>  <Quatassemblies alias>  (47) 
nan

>  <Crystalforms alias>  (47) 
nan

$$$$
c0404b
     RDKit          3D

 11 11  0  0  0  0  0  0  0  0999 V2000
   15.2290   11.1330    9.6970 O   0  0  0  0  0  0  0  0  0  0  0  0
   15.8800   10.0860    9.8450 C   0  0  0  0  0  0  0  0  0  0  0  0
   17.1260    9.9340    9.4070 N   0  0  0  0  0  0  0  0  0  0  0  0
   15.2750    8.9090   10.5290 C   0  0  0  0  0  0  0  0  0  0  0  0
   14.3550    8.9120   11.5870 C   0  0  0  0  0  0  0  0  0  0  0  0
   15.5470    7.6880   10.1210 N   0  0  0  0  0  0  0  0  0  0  0  0
   14.7550    6.8460   10.9400 O   0  0  0  0  0  0  0  0  0  0  0  0
   14.0470    7.6230   11.7860 C   0  0  0  0  0  0  0  0  0  0  0  0
   13.0670    6.9050   12.6400 C   0  0  0  0  0  0  0  0  0  0  0  0
   12.2240    6.1170   11.8130 O   0  0  0  0  0  0  0  0  0  0  0  0
   11.1560    5.5000   12.5260 C   0  0  0  0  0  0  0  0  0  0  0  0
 11 10  1  0
 10  9  1  0
  9  8  1  0
  8  5  2  0
  5  4  1  0
  6  4  2  0
  7  6  1  0
  8  7  1  0
  4  2  1  0
  2  1  2  0
  3  2  1  0
M  END
>  <id>  (48) 
5836

>  <inchikey>  (48) 
XJISISZPFKFZEU-UHFFFAOYSA-N

>  <alias>  (48) 
c0404b

>  <smiles>  (48) 
COCc1cc(C(N)=O)no1

>  <path>  (48) 
/opt/xchem-fragalysis-2/maxwin/CHIKV_Mac_20240920/aligned_files/c0404b/c0404b_hippo.pdb

>  <compound>  (48) 
XJISISZPFKFZEU-UHFFFAOYSA-N

>  <target>  (48) 
CHIKV_Mac

>  <tags>  (48) 
['[Other] Adenine site', 'hits', '[Other] fragment screen']

>  <reference>  (48) 
None

>  <exports>  (48) 
['/opt/xchem-fragalysis-2/maxwin/CHIKV_HIPPO/web_resources/hit_poses.sdf', '/opt/xchem-fragalysis-2/maxwin/CHIKV_HIPPO/web/web_resources/hit_poses.sdf', '/opt/xchem-fragalysis-2/maxwin/CHIKV_HIPPO/web2/web_resources/hit_poses.sdf']

>  <observation_longname>  (48) 
CHIKV_MacB-x0404_C_304_1_CHIKV_MacB-x2352+C+401+1

>  <ConformerSites alias>  (48) 
1a - c2352/C/401

>  <CanonSites alias>  (48) 
1 - c2352/C/401/1

>  <CrystalformSites alias>  (48) 
F1a - c0270/A/304

>  <Quatassemblies alias>  (48) 
A1 - monomer

>  <Crystalforms alias>  (48) 
F1 - P31-4fold-NCS

$$$$
c0406a
     RDKit          3D

 14 15  0  0  0  0  0  0  0  0999 V2000
   10.6380    6.7030   13.2600 O   0  0  0  0  0  0  0  0  0  0  0  0
   11.5300    6.0910   12.3330 C   0  0  0  0  0  0  0  0  0  0  0  0
   12.9540    5.9390   12.8600 C   0  0  2  0  0  0  0  0  0  0  0  0
   13.0470    5.5020   14.3290 C   0  0  0  0  0  0  0  0  0  0  0  0
   14.4520    5.9360   14.7860 C   0  0  0  0  0  0  0  0  0  0  0  0
   15.0640    6.7330   13.6330 C   0  0  0  0  0  0  0  0  0  0  0  0
   13.8480    7.1780   12.8120 C   0  0  1  0  0  0  0  0  0  0  0  0
   14.1820    7.6060   11.4560 N   0  0  0  0  0  0  0  0  0  0  0  0
   14.3840    8.8810   11.0520 C   0  0  0  0  0  0  0  0  0  0  0  0
   14.7250    9.3320    9.4160 S   0  0  0  0  0  0  0  0  0  0  0  0
   14.7220   10.9600    9.8120 N   0  0  0  0  0  0  0  0  0  0  0  0
   14.2950    9.9240   11.8440 N   0  0  0  0  0  0  0  0  0  0  0  0
   14.4760   11.0630   11.0960 C   0  0  0  0  0  0  0  0  0  0  0  0
   14.3360   12.4160   11.6950 C   0  0  0  0  0  0  0  0  0  0  0  0
 14 13  1  0
 13 11  2  0
 11 10  1  0
 10  9  1  0
  9  8  1  0
  7  8  1  6
  7  6  1  0
  6  5  1  0
  5  4  1  0
  4  3  1  0
  7  3  1  0
  3  2  1  1
  2  1  1  0
 12  9  2  0
 13 12  1  0
M  END
>  <id>  (49) 
5837

>  <inchikey>  (49) 
QUKZXHGECCPEIZ-JGVFFNPUSA-N

>  <alias>  (49) 
c0406a

>  <smiles>  (49) 
Cc1nsc(N[C@@H]2CCC[C@H]2CO)n1

>  <path>  (49) 
/opt/xchem-fragalysis-2/maxwin/CHIKV_Mac_20240920/aligned_files/c0406a/c0406a.pdb

>  <compound>  (49) 
QUKZXHGECCPEIZ-UHFFFAOYSA-N

>  <target>  (49) 
CHIKV_Mac

>  <tags>  (49) 
['[Other] Adenine site', 'hits', '[Other] Phosphate site', '[Other] fragment screen']

>  <reference>  (49) 
None

>  <exports>  (49) 
['/opt/xchem-fragalysis-2/maxwin/CHIKV_HIPPO/web_resources/hit_poses.sdf', '/opt/xchem-fragalysis-2/maxwin/CHIKV_HIPPO/web/web_resources/hit_poses.sdf', '/opt/xchem-fragalysis-2/maxwin/CHIKV_HIPPO/web2/web_resources/hit_poses.sdf']

>  <observation_longname>  (49) 
nan

>  <ConformerSites alias>  (49) 
nan

>  <CanonSites alias>  (49) 
nan

>  <CrystalformSites alias>  (49) 
nan

>  <Quatassemblies alias>  (49) 
nan

>  <Crystalforms alias>  (49) 
nan

$$$$
c0406b
     RDKit          3D

 14 15  0  0  0  0  0  0  0  0999 V2000
   10.5000    7.3710   13.0620 O   0  0  0  0  0  0  0  0  0  0  0  0
   11.1190    6.2180   12.4890 C   0  0  0  0  0  0  0  0  0  0  0  0
   12.5460    5.9700   12.9590 C   0  0  2  0  0  0  0  0  0  0  0  0
   12.6700    5.4370   14.3940 C   0  0  0  0  0  0  0  0  0  0  0  0
   14.0180    5.9560   14.9160 C   0  0  0  0  0  0  0  0  0  0  0  0
   14.6470    6.7180   13.7720 C   0  0  0  0  0  0  0  0  0  0  0  0
   13.4380    7.1910   12.9650 C   0  0  1  0  0  0  0  0  0  0  0  0
   13.7730    7.6090   11.6130 N   0  0  0  0  0  0  0  0  0  0  0  0
   13.9800    8.8780   11.2450 C   0  0  0  0  0  0  0  0  0  0  0  0
   14.3340    9.3260    9.6210 S   0  0  0  0  0  0  0  0  0  0  0  0
   14.3480   10.9750   10.0480 N   0  0  0  0  0  0  0  0  0  0  0  0
   13.8960    9.9130   12.0570 N   0  0  0  0  0  0  0  0  0  0  0  0
   14.1160   11.0610   11.3330 C   0  0  0  0  0  0  0  0  0  0  0  0
   14.1670   12.4330   11.9160 C   0  0  0  0  0  0  0  0  0  0  0  0
 14 13  1  0
 13 11  2  0
 11 10  1  0
 10  9  1  0
  9  8  1  0
  7  8  1  6
  7  6  1  0
  6  5  1  0
  5  4  1  0
  4  3  1  0
  7  3  1  0
  3  2  1  1
  2  1  1  0
 12  9  2  0
 13 12  1  0
M  END
>  <id>  (50) 
5838

>  <inchikey>  (50) 
QUKZXHGECCPEIZ-JGVFFNPUSA-N

>  <alias>  (50) 
c0406b

>  <smiles>  (50) 
Cc1nsc(N[C@@H]2CCC[C@H]2CO)n1

>  <path>  (50) 
/opt/xchem-fragalysis-2/maxwin/CHIKV_Mac_20240920/aligned_files/c0406b/c0406b_hippo.pdb

>  <compound>  (50) 
QUKZXHGECCPEIZ-UHFFFAOYSA-N

>  <target>  (50) 
CHIKV_Mac

>  <tags>  (50) 
['[Other] Adenine site', 'hits', '[Other] Phosphate site', '[Other] fragment screen']

>  <reference>  (50) 
None

>  <exports>  (50) 
['/opt/xchem-fragalysis-2/maxwin/CHIKV_HIPPO/web_resources/hit_poses.sdf', '/opt/xchem-fragalysis-2/maxwin/CHIKV_HIPPO/web/web_resources/hit_poses.sdf', '/opt/xchem-fragalysis-2/maxwin/CHIKV_HIPPO/web2/web_resources/hit_poses.sdf']

>  <observation_longname>  (50) 
CHIKV_MacB-x0406_B_304_1_CHIKV_MacB-x2352+C+401+1

>  <ConformerSites alias>  (50) 
1a - c2352/C/401

>  <CanonSites alias>  (50) 
1 - c2352/C/401/1

>  <CrystalformSites alias>  (50) 
F1a - c0270/A/304

>  <Quatassemblies alias>  (50) 
A1 - monomer

>  <Crystalforms alias>  (50) 
F1 - P31-4fold-NCS

$$$$
c0436a
     RDKit          3D

 14 15  0  0  0  0  0  0  0  0999 V2000
   14.4510    0.8280   15.6550 O   0  0  0  0  0  0  0  0  0  0  0  0
   15.6370    1.0990   15.8440 C   0  0  0  0  0  0  0  0  0  0  0  0
   16.2880    0.7180   17.1610 C   0  0  2  0  0  0  0  0  0  0  0  0
   17.7020    1.1270   17.2730 N   0  0  0  0  0  0  0  0  0  0  0  0
   18.4140    1.0280   15.9940 C   0  0  0  0  0  0  0  0  0  0  0  0
   17.8040    1.9660   15.0000 C   0  0  0  0  0  0  0  0  0  0  0  0
   16.3740    1.7350   14.9330 N   0  0  0  0  0  0  0  0  0  0  0  0
   16.1100   -0.7760   17.4480 C   0  0  0  0  0  0  0  0  0  0  0  0
   16.8240   -1.2780   18.7010 C   0  0  0  0  0  0  0  0  0  0  0  0
   17.4630   -2.6360   18.4690 C   0  0  0  0  0  0  0  0  0  0  0  0
   18.2330   -3.1140   19.6950 C   0  0  0  0  0  0  0  0  0  0  0  0
   17.3380   -3.1710   20.9230 C   0  0  0  0  0  0  0  0  0  0  0  0
   16.6310   -1.8410   21.1530 C   0  0  0  0  0  0  0  0  0  0  0  0
   15.8920   -1.3760   19.9020 C   0  0  0  0  0  0  0  0  0  0  0  0
  2  1  2  0
  2  7  1  0
  7  6  1  0
  6  5  1  0
  5  4  1  0
  4  3  1  0
  3  2  1  0
  3  8  1  6
  9  8  1  0
  9 14  1  0
 14 13  1  0
 13 12  1  0
 12 11  1  0
 11 10  1  0
 10  9  1  0
M  END
>  <id>  (51) 
5839

>  <inchikey>  (51) 
MWAZDIXAEWBVMS-SNVBAGLBSA-N

>  <alias>  (51) 
c0436a

>  <smiles>  (51) 
O=C1NCCN[C@@H]1CC1CCCCC1

>  <path>  (51) 
/opt/xchem-fragalysis-2/maxwin/CHIKV_Mac_20240920/aligned_files/c0436a/c0436a_hippo.pdb

>  <compound>  (51) 
MWAZDIXAEWBVMS-UHFFFAOYSA-N

>  <target>  (51) 
CHIKV_Mac

>  <tags>  (51) 
['hits', '[Other] Trp148 site', '[Other] fragment screen']

>  <reference>  (51) 
None

>  <exports>  (51) 
['/opt/xchem-fragalysis-2/maxwin/CHIKV_HIPPO/web_resources/hit_poses.sdf', '/opt/xchem-fragalysis-2/maxwin/CHIKV_HIPPO/web/web_resources/hit_poses.sdf', '/opt/xchem-fragalysis-2/maxwin/CHIKV_HIPPO/web2/web_resources/hit_poses.sdf']

>  <observation_longname>  (51) 
nan

>  <ConformerSites alias>  (51) 
nan

>  <CanonSites alias>  (51) 
nan

>  <CrystalformSites alias>  (51) 
nan

>  <Quatassemblies alias>  (51) 
nan

>  <Crystalforms alias>  (51) 
nan

$$$$
c0436b
     RDKit          3D

 14 15  0  0  0  0  0  0  0  0999 V2000
   14.6420    0.7840   15.5510 O   0  0  0  0  0  0  0  0  0  0  0  0
   15.8260    1.1230   15.5920 C   0  0  0  0  0  0  0  0  0  0  0  0
   16.8010    0.3740   16.4790 C   0  0  1  0  0  0  0  0  0  0  0  0
   18.0440    1.1300   16.6830 N   0  0  0  0  0  0  0  0  0  0  0  0
   18.6160    1.5580   15.4040 C   0  0  0  0  0  0  0  0  0  0  0  0
   17.7050    2.5490   14.7200 C   0  0  0  0  0  0  0  0  0  0  0  0
   16.3010    2.1480   14.8860 N   0  0  0  0  0  0  0  0  0  0  0  0
   16.1600    0.0050   17.8190 C   0  0  0  0  0  0  0  0  0  0  0  0
   17.0030   -0.9150   18.7000 C   0  0  0  0  0  0  0  0  0  0  0  0
   16.2980   -1.1690   20.0270 C   0  0  0  0  0  0  0  0  0  0  0  0
   17.0830   -2.1170   20.9310 C   0  0  0  0  0  0  0  0  0  0  0  0
   17.3550   -3.4350   20.2340 C   0  0  0  0  0  0  0  0  0  0  0  0
   18.0690   -3.2070   18.9170 C   0  0  0  0  0  0  0  0  0  0  0  0
   17.2870   -2.2520   18.0190 C   0  0  0  0  0  0  0  0  0  0  0  0
  2  1  2  0
  2  7  1  0
  7  6  1  0
  6  5  1  0
  5  4  1  0
  4  3  1  0
  3  2  1  0
  3  8  1  1
  9  8  1  0
  9 14  1  0
 14 13  1  0
 13 12  1  0
 12 11  1  0
 11 10  1  0
 10  9  1  0
M  END
>  <id>  (52) 
5840

>  <inchikey>  (52) 
MWAZDIXAEWBVMS-JTQLQIEISA-N

>  <alias>  (52) 
c0436b

>  <smiles>  (52) 
O=C1NCCN[C@H]1CC1CCCCC1

>  <path>  (52) 
/opt/xchem-fragalysis-2/maxwin/CHIKV_Mac_20240920/aligned_files/c0436b/c0436b_hippo.pdb

>  <compound>  (52) 
MWAZDIXAEWBVMS-UHFFFAOYSA-N

>  <target>  (52) 
CHIKV_Mac

>  <tags>  (52) 
['hits', '[Other] Trp148 site', '[Other] fragment screen']

>  <reference>  (52) 
None

>  <exports>  (52) 
['/opt/xchem-fragalysis-2/maxwin/CHIKV_HIPPO/web_resources/hit_poses.sdf', '/opt/xchem-fragalysis-2/maxwin/CHIKV_HIPPO/web/web_resources/hit_poses.sdf', '/opt/xchem-fragalysis-2/maxwin/CHIKV_HIPPO/web2/web_resources/hit_poses.sdf']

>  <observation_longname>  (52) 
CHIKV_MacB-x0436_C_304_1_CHIKV_MacB-x2352+C+401+1

>  <ConformerSites alias>  (52) 
1a - c2352/C/401

>  <CanonSites alias>  (52) 
1 - c2352/C/401/1

>  <CrystalformSites alias>  (52) 
F1a - c0270/A/304

>  <Quatassemblies alias>  (52) 
A1 - monomer

>  <Crystalforms alias>  (52) 
F1 - P31-4fold-NCS

$$$$
c0441a
     RDKit          3D

 15 16  0  0  0  0  0  0  0  0999 V2000
   17.8570    4.0280   11.2740 O   0  0  0  0  0  0  0  0  0  0  0  0
   16.9280    3.8310   12.0730 C   0  0  0  0  0  0  0  0  0  0  0  0
   15.6610    4.1280   11.7840 N   0  0  0  0  0  0  0  0  0  0  0  0
   17.2280    3.2110   13.4210 C   0  0  0  0  0  0  0  0  0  0  0  0
   16.2690    2.6660   14.2740 C   0  0  0  0  0  0  0  0  0  0  0  0
   16.7020    2.0730   15.4720 C   0  0  0  0  0  0  0  0  0  0  0  0
   17.9930    2.0020   15.8240 N   0  0  0  0  0  0  0  0  0  0  0  0
   18.8900    2.5400   14.9880 C   0  0  0  0  0  0  0  0  0  0  0  0
   18.5610    3.1540   13.7980 C   0  0  0  0  0  0  0  0  0  0  0  0
   15.7980    1.5360   16.3540 N   0  0  0  0  0  0  0  0  0  0  0  0
   16.1370    0.8170   17.5850 C   0  0  0  0  0  0  0  0  0  0  0  0
   16.5850   -0.6380   17.3420 C   0  0  0  0  0  0  0  0  0  0  0  0
   16.0880   -1.3570   18.5470 C   0  0  0  0  0  0  0  0  0  0  0  0
   15.2130   -0.6430   19.2110 C   0  0  0  0  0  0  0  0  0  0  0  0
   14.9650    0.6870   18.5740 C   0  0  0  0  0  0  0  0  0  0  0  0
  3  2  1  0
  2  1  2  0
  4  2  1  0
  4  9  2  0
  9  8  1  0
  8  7  2  0
  7  6  1  0
 10  6  1  0
 11 10  1  0
 11 15  1  0
 15 14  1  0
 14 13  2  0
 13 12  1  0
 12 11  1  0
  6  5  2  0
  5  4  1  0
M  END
>  <id>  (53) 
5841

>  <inchikey>  (53) 
NDEZMUYBKJXUGJ-UHFFFAOYSA-N

>  <alias>  (53) 
c0441a

>  <smiles>  (53) 
NC(=O)c1ccnc(NC2CC=CC2)c1

>  <path>  (53) 
/opt/xchem-fragalysis-2/maxwin/CHIKV_Mac_20240920/aligned_files/c0441a/c0441a.pdb

>  <compound>  (53) 
NDEZMUYBKJXUGJ-UHFFFAOYSA-N

>  <target>  (53) 
CHIKV_Mac

>  <tags>  (53) 
['[Other] Oxyanion site', 'hits', '[Other] Trp148 site', '[Other] fragment screen']

>  <reference>  (53) 
None

>  <exports>  (53) 
['/opt/xchem-fragalysis-2/maxwin/CHIKV_HIPPO/web_resources/hit_poses.sdf', '/opt/xchem-fragalysis-2/maxwin/CHIKV_HIPPO/web/web_resources/hit_poses.sdf', '/opt/xchem-fragalysis-2/maxwin/CHIKV_HIPPO/web2/web_resources/hit_poses.sdf']

>  <observation_longname>  (53) 
nan

>  <ConformerSites alias>  (53) 
nan

>  <CanonSites alias>  (53) 
nan

>  <CrystalformSites alias>  (53) 
nan

>  <Quatassemblies alias>  (53) 
nan

>  <Crystalforms alias>  (53) 
nan

$$$$
c0477a
     RDKit          3D

 11 11  0  0  0  0  0  0  0  0999 V2000
   14.2850   11.6990   10.5270 O   0  0  0  0  0  0  0  0  0  0  0  0
   14.3090   12.1980   11.6610 C   0  0  0  0  0  0  0  0  0  0  0  0
   14.1820   13.5040   11.8660 N   0  0  0  0  0  0  0  0  0  0  0  0
   14.4550   11.3170   12.8620 C   0  0  0  0  0  0  0  0  0  0  0  0
   14.3450    9.9360   12.8590 C   0  0  0  0  0  0  0  0  0  0  0  0
   14.4290    9.5370   14.1370 N   0  0  0  0  0  0  0  0  0  0  0  0
   14.6270   10.5710   14.9900 N   0  0  0  0  0  0  0  0  0  0  0  0
   14.6380   11.6410   14.2150 C   0  0  0  0  0  0  0  0  0  0  0  0
   14.2350    8.1880   14.6610 C   0  0  0  0  0  0  0  0  0  0  0  0
   15.4080    7.7810   15.5140 C   0  0  0  0  0  0  0  0  0  0  0  0
   16.5980    7.8460   14.7650 O   0  0  0  0  0  0  0  0  0  0  0  0
  3  2  1  0
  2  1  2  0
  4  2  1  0
  4  8  1  0
  8  7  2  0
  7  6  1  0
  9  6  1  0
 10  9  1  0
 11 10  1  0
  6  5  1  0
  5  4  2  0
M  END
>  <id>  (54) 
5842

>  <inchikey>  (54) 
LHYHSUSQLBMWFV-UHFFFAOYSA-N

>  <alias>  (54) 
c0477a

>  <smiles>  (54) 
NC(=O)c1cnn(CCO)c1

>  <path>  (54) 
/opt/xchem-fragalysis-2/maxwin/CHIKV_Mac_20240920/aligned_files/c0477a/c0477a_hippo.pdb

>  <compound>  (54) 
LHYHSUSQLBMWFV-UHFFFAOYSA-N

>  <target>  (54) 
CHIKV_Mac

>  <tags>  (54) 
['[Other] Adenine site', 'hits', '[Other] fragment screen']

>  <reference>  (54) 
None

>  <exports>  (54) 
['/opt/xchem-fragalysis-2/maxwin/CHIKV_HIPPO/web_resources/hit_poses.sdf', '/opt/xchem-fragalysis-2/maxwin/CHIKV_HIPPO/web/web_resources/hit_poses.sdf', '/opt/xchem-fragalysis-2/maxwin/CHIKV_HIPPO/web2/web_resources/hit_poses.sdf']

>  <observation_longname>  (54) 
nan

>  <ConformerSites alias>  (54) 
nan

>  <CanonSites alias>  (54) 
nan

>  <CrystalformSites alias>  (54) 
nan

>  <Quatassemblies alias>  (54) 
nan

>  <Crystalforms alias>  (54) 
nan

$$$$
c0477b
     RDKit          3D

 11 11  0  0  0  0  0  0  0  0999 V2000
   14.5870   11.7550   10.5170 O   0  0  0  0  0  0  0  0  0  0  0  0
   14.6310   12.2630   11.6440 C   0  0  0  0  0  0  0  0  0  0  0  0
   14.6940   13.5770   11.8340 N   0  0  0  0  0  0  0  0  0  0  0  0
   14.5860   11.3870   12.8560 C   0  0  0  0  0  0  0  0  0  0  0  0
   14.4480   10.0090   12.8690 C   0  0  0  0  0  0  0  0  0  0  0  0
   14.4280    9.6330   14.1590 N   0  0  0  0  0  0  0  0  0  0  0  0
   14.5550   10.6840   15.0060 N   0  0  0  0  0  0  0  0  0  0  0  0
   14.6440   11.7370   14.2160 C   0  0  0  0  0  0  0  0  0  0  0  0
   14.2410    8.2880   14.6940 C   0  0  0  0  0  0  0  0  0  0  0  0
   15.4230    7.9320   15.5630 C   0  0  0  0  0  0  0  0  0  0  0  0
   16.5870    7.7870   14.7720 O   0  0  0  0  0  0  0  0  0  0  0  0
  3  2  1  0
  2  1  2  0
  4  2  1  0
  4  8  1  0
  8  7  2  0
  7  6  1  0
  9  6  1  0
 10  9  1  0
 11 10  1  0
  6  5  1  0
  5  4  2  0
M  END
>  <id>  (55) 
5843

>  <inchikey>  (55) 
LHYHSUSQLBMWFV-UHFFFAOYSA-N

>  <alias>  (55) 
c0477b

>  <smiles>  (55) 
NC(=O)c1cnn(CCO)c1

>  <path>  (55) 
/opt/xchem-fragalysis-2/maxwin/CHIKV_Mac_20240920/aligned_files/c0477b/c0477b_hippo.pdb

>  <compound>  (55) 
LHYHSUSQLBMWFV-UHFFFAOYSA-N

>  <target>  (55) 
CHIKV_Mac

>  <tags>  (55) 
['[Other] Adenine site', 'hits', '[Other] fragment screen']

>  <reference>  (55) 
None

>  <exports>  (55) 
['/opt/xchem-fragalysis-2/maxwin/CHIKV_HIPPO/web_resources/hit_poses.sdf', '/opt/xchem-fragalysis-2/maxwin/CHIKV_HIPPO/web/web_resources/hit_poses.sdf', '/opt/xchem-fragalysis-2/maxwin/CHIKV_HIPPO/web2/web_resources/hit_poses.sdf']

>  <observation_longname>  (55) 
nan

>  <ConformerSites alias>  (55) 
nan

>  <CanonSites alias>  (55) 
nan

>  <CrystalformSites alias>  (55) 
nan

>  <Quatassemblies alias>  (55) 
nan

>  <Crystalforms alias>  (55) 
nan

$$$$
c1076a
     RDKit          3D

  8  8  0  0  0  0  0  0  0  0999 V2000
   14.8060    8.6330   14.5980 Br  0  0  0  0  0  0  0  0  0  0  0  0
   14.7380   10.1850   13.5300 C   0  0  0  0  0  0  0  0  0  0  0  0
   14.7060   10.0680   12.1800 C   0  0  0  0  0  0  0  0  0  0  0  0
   14.7060   11.4520   14.1730 C   0  0  0  0  0  0  0  0  0  0  0  0
   14.6290   12.5360   13.3780 C   0  0  0  0  0  0  0  0  0  0  0  0
   14.5880   12.4230   12.0250 N   0  0  0  0  0  0  0  0  0  0  0  0
   14.6290   11.2290   11.3570 C   0  0  0  0  0  0  0  0  0  0  0  0
   14.6140   11.2300   10.1150 O   0  0  0  0  0  0  0  0  0  0  0  0
  8  7  2  0
  7  3  1  0
  3  2  2  0
  2  1  1  0
  4  2  1  0
  5  4  2  0
  6  5  1  0
  7  6  1  0
M  END
>  <id>  (56) 
5844

>  <inchikey>  (56) 
SSLMGOKTIUIZLY-UHFFFAOYSA-N

>  <alias>  (56) 
c1076a

>  <smiles>  (56) 
O=c1cc(Br)cc[nH]1

>  <path>  (56) 
/opt/xchem-fragalysis-2/maxwin/CHIKV_Mac_20240920/aligned_files/c1076a/c1076a.pdb

>  <compound>  (56) 
SSLMGOKTIUIZLY-UHFFFAOYSA-N

>  <target>  (56) 
CHIKV_Mac

>  <tags>  (56) 
['[Other] Adenine site', 'hits', '[Other] fragment screen']

>  <reference>  (56) 
None

>  <exports>  (56) 
['/opt/xchem-fragalysis-2/maxwin/CHIKV_HIPPO/web_resources/hit_poses.sdf', '/opt/xchem-fragalysis-2/maxwin/CHIKV_HIPPO/web/web_resources/hit_poses.sdf', '/opt/xchem-fragalysis-2/maxwin/CHIKV_HIPPO/web2/web_resources/hit_poses.sdf']

>  <observation_longname>  (56) 
CHIKV_MacB-x1076_B_401_1_CHIKV_MacB-x2352+C+401+1

>  <ConformerSites alias>  (56) 
1a - c2352/C/401

>  <CanonSites alias>  (56) 
1 - c2352/C/401/1

>  <CrystalformSites alias>  (56) 
F1a - c0270/A/304

>  <Quatassemblies alias>  (56) 
A1 - monomer

>  <Crystalforms alias>  (56) 
F1 - P31-4fold-NCS

$$$$
c0505a
     RDKit          3D

 15 16  0  0  0  0  0  0  0  0999 V2000
   14.0020    1.2340   19.0660 F   0  0  0  0  0  0  0  0  0  0  0  0
   14.9920    0.4930   18.5200 C   0  0  0  0  0  0  0  0  0  0  0  0
   15.1290   -0.8270   18.8850 C   0  0  0  0  0  0  0  0  0  0  0  0
   16.1640   -1.5660   18.3300 C   0  0  0  0  0  0  0  0  0  0  0  0
   17.0470   -0.9840   17.4300 C   0  0  0  0  0  0  0  0  0  0  0  0
   15.8490    1.1070   17.6240 C   0  0  0  0  0  0  0  0  0  0  0  0
   15.6120    2.4200   17.2820 O   0  0  0  0  0  0  0  0  0  0  0  0
   16.4790    3.0410   16.2710 C   0  0  2  0  0  0  0  0  0  0  0  0
   15.6290    4.0190   15.4960 C   0  0  0  0  0  0  0  0  0  0  0  0
   16.8960    0.3580   17.0860 C   0  0  0  0  0  0  0  0  0  0  0  0
   17.7920    1.0240   16.2200 N   0  0  0  0  0  0  0  0  0  0  0  0
   17.0840    1.9840   15.3700 C   0  0  0  0  0  0  0  0  0  0  0  0
   19.1540    0.8960   16.2440 C   0  0  0  0  0  0  0  0  0  0  0  0
   19.6900   -0.1970   16.0980 O   0  0  0  0  0  0  0  0  0  0  0  0
   19.9540    2.1430   16.4740 C   0  0  0  0  0  0  0  0  0  0  0  0
  8  9  1  6
  8 12  1  0
 12 11  1  0
 13 11  1  0
 14 13  2  0
 15 13  1  0
 11 10  1  0
 10  5  1  0
  5  4  2  0
  4  3  1  0
  3  2  2  0
  2  1  1  0
  6  2  1  0
 10  6  2  0
  7  6  1  0
  8  7  1  0
M  END
>  <id>  (57) 
5845

>  <inchikey>  (57) 
QFYVKVSXHXQAQZ-SSDOTTSWSA-N

>  <alias>  (57) 
c0505a

>  <smiles>  (57) 
CC(=O)N1C[C@@H](C)Oc2c(F)cccc21

>  <path>  (57) 
/opt/xchem-fragalysis-2/maxwin/CHIKV_Mac_20240920/aligned_files/c0505a/c0505a_hippo.pdb

>  <compound>  (57) 
QFYVKVSXHXQAQZ-UHFFFAOYSA-N

>  <target>  (57) 
CHIKV_Mac

>  <tags>  (57) 
['hits', '[Other] Trp148 site', '[Other] fragment screen']

>  <reference>  (57) 
None

>  <exports>  (57) 
['/opt/xchem-fragalysis-2/maxwin/CHIKV_HIPPO/web_resources/hit_poses.sdf', '/opt/xchem-fragalysis-2/maxwin/CHIKV_HIPPO/web/web_resources/hit_poses.sdf', '/opt/xchem-fragalysis-2/maxwin/CHIKV_HIPPO/web2/web_resources/hit_poses.sdf']

>  <observation_longname>  (57) 
nan

>  <ConformerSites alias>  (57) 
nan

>  <CanonSites alias>  (57) 
nan

>  <CrystalformSites alias>  (57) 
nan

>  <Quatassemblies alias>  (57) 
nan

>  <Crystalforms alias>  (57) 
nan

$$$$
c0505b
     RDKit          3D

 15 16  0  0  0  0  0  0  0  0999 V2000
   13.9090    1.0830   18.8980 F   0  0  0  0  0  0  0  0  0  0  0  0
   14.9900    0.4070   18.4640 C   0  0  0  0  0  0  0  0  0  0  0  0
   15.1980   -0.8850   18.8830 C   0  0  0  0  0  0  0  0  0  0  0  0
   16.2830   -1.5780   18.3680 C   0  0  0  0  0  0  0  0  0  0  0  0
   17.1350   -0.9760   17.4540 C   0  0  0  0  0  0  0  0  0  0  0  0
   15.8370    1.0390   17.5750 C   0  0  0  0  0  0  0  0  0  0  0  0
   15.5900    2.3300   17.2240 O   0  0  0  0  0  0  0  0  0  0  0  0
   15.9300    2.6550   15.8890 C   0  0  1  0  0  0  0  0  0  0  0  0
   15.6730    4.1410   15.8200 C   0  0  0  0  0  0  0  0  0  0  0  0
   16.9260    0.3490   17.0690 C   0  0  0  0  0  0  0  0  0  0  0  0
   17.8350    1.0500   16.2230 N   0  0  0  0  0  0  0  0  0  0  0  0
   17.3810    2.3180   15.6010 C   0  0  0  0  0  0  0  0  0  0  0  0
   19.1340    0.6660   15.9870 C   0  0  0  0  0  0  0  0  0  0  0  0
   19.6220   -0.2960   16.5700 O   0  0  0  0  0  0  0  0  0  0  0  0
   19.9400    1.4650   15.0080 C   0  0  0  0  0  0  0  0  0  0  0  0
  8  9  1  1
  8 12  1  0
 12 11  1  0
 13 11  1  0
 14 13  2  0
 15 13  1  0
 11 10  1  0
 10  5  1  0
  5  4  2  0
  4  3  1  0
  3  2  2  0
  2  1  1  0
  6  2  1  0
 10  6  2  0
  7  6  1  0
  8  7  1  0
M  END
>  <id>  (58) 
5846

>  <inchikey>  (58) 
QFYVKVSXHXQAQZ-ZETCQYMHSA-N

>  <alias>  (58) 
c0505b

>  <smiles>  (58) 
CC(=O)N1C[C@H](C)Oc2c(F)cccc21

>  <path>  (58) 
/opt/xchem-fragalysis-2/maxwin/CHIKV_Mac_20240920/aligned_files/c0505b/c0505b_hippo.pdb

>  <compound>  (58) 
QFYVKVSXHXQAQZ-UHFFFAOYSA-N

>  <target>  (58) 
CHIKV_Mac

>  <tags>  (58) 
['hits', '[Other] Trp148 site', '[Other] fragment screen']

>  <reference>  (58) 
None

>  <exports>  (58) 
['/opt/xchem-fragalysis-2/maxwin/CHIKV_HIPPO/web_resources/hit_poses.sdf', '/opt/xchem-fragalysis-2/maxwin/CHIKV_HIPPO/web/web_resources/hit_poses.sdf', '/opt/xchem-fragalysis-2/maxwin/CHIKV_HIPPO/web2/web_resources/hit_poses.sdf']

>  <observation_longname>  (58) 
nan

>  <ConformerSites alias>  (58) 
nan

>  <CanonSites alias>  (58) 
nan

>  <CrystalformSites alias>  (58) 
nan

>  <Quatassemblies alias>  (58) 
nan

>  <Crystalforms alias>  (58) 
nan

$$$$
c0505c
     RDKit          3D

 15 16  0  0  0  0  0  0  0  0999 V2000
   18.2280   -3.0670   18.3740 F   0  0  0  0  0  0  0  0  0  0  0  0
   17.3250   -2.0650   18.3120 C   0  0  0  0  0  0  0  0  0  0  0  0
   16.1780   -2.1510   19.0620 C   0  0  0  0  0  0  0  0  0  0  0  0
   15.2560   -1.1230   18.9800 C   0  0  0  0  0  0  0  0  0  0  0  0
   15.4720   -0.0410   18.1400 C   0  0  0  0  0  0  0  0  0  0  0  0
   17.5920   -0.9870   17.4850 C   0  0  0  0  0  0  0  0  0  0  0  0
   18.8270   -0.9150   16.8810 O   0  0  0  0  0  0  0  0  0  0  0  0
   19.1170    0.2490   16.0360 C   0  0  2  0  0  0  0  0  0  0  0  0
   20.5960    0.5030   16.1570 C   0  0  0  0  0  0  0  0  0  0  0  0
   16.6380    0.0250   17.3790 C   0  0  0  0  0  0  0  0  0  0  0  0
   16.8800    1.0880   16.4760 N   0  0  0  0  0  0  0  0  0  0  0  0
   18.3020    1.4530   16.4640 C   0  0  0  0  0  0  0  0  0  0  0  0
   15.9230    1.6710   15.6950 C   0  0  0  0  0  0  0  0  0  0  0  0
   14.8170    1.1500   15.5690 O   0  0  0  0  0  0  0  0  0  0  0  0
   16.2660    2.9640   15.0210 C   0  0  0  0  0  0  0  0  0  0  0  0
  8  9  1  1
  8 12  1  0
 12 11  1  0
 13 11  1  0
 14 13  2  0
 15 13  1  0
 11 10  1  0
 10  5  1  0
  5  4  2  0
  4  3  1  0
  3  2  2  0
  2  1  1  0
  6  2  1  0
 10  6  2  0
  7  6  1  0
  8  7  1  0
M  END
>  <id>  (59) 
5847

>  <inchikey>  (59) 
QFYVKVSXHXQAQZ-SSDOTTSWSA-N

>  <alias>  (59) 
c0505c

>  <smiles>  (59) 
CC(=O)N1C[C@@H](C)Oc2c(F)cccc21

>  <path>  (59) 
/opt/xchem-fragalysis-2/maxwin/CHIKV_Mac_20240920/aligned_files/c0505c/c0505c_hippo.pdb

>  <compound>  (59) 
QFYVKVSXHXQAQZ-UHFFFAOYSA-N

>  <target>  (59) 
CHIKV_Mac

>  <tags>  (59) 
['hits', '[Other] Trp148 site', '[Other] fragment screen']

>  <reference>  (59) 
None

>  <exports>  (59) 
['/opt/xchem-fragalysis-2/maxwin/CHIKV_HIPPO/web_resources/hit_poses.sdf', '/opt/xchem-fragalysis-2/maxwin/CHIKV_HIPPO/web/web_resources/hit_poses.sdf', '/opt/xchem-fragalysis-2/maxwin/CHIKV_HIPPO/web2/web_resources/hit_poses.sdf']

>  <observation_longname>  (59) 
CHIKV_MacB-x0505_C_401_1_CHIKV_MacB-x2352+C+401+1

>  <ConformerSites alias>  (59) 
1a - c2352/C/401

>  <CanonSites alias>  (59) 
1 - c2352/C/401/1

>  <CrystalformSites alias>  (59) 
F1a - c0270/A/304

>  <Quatassemblies alias>  (59) 
A1 - monomer

>  <Crystalforms alias>  (59) 
F1 - P31-4fold-NCS

$$$$
c0522a
     RDKit          3D

 14 14  0  0  0  0  0  0  0  0999 V2000
   15.1830    3.4210   18.1680 O   0  0  0  0  0  0  0  0  0  0  0  0
   15.5410    2.6820   17.2660 C   0  0  0  0  0  0  0  0  0  0  0  0
   15.6270    3.0950   15.9880 N   0  0  0  0  0  0  0  0  0  0  0  0
   15.9200    2.2720   14.8070 C   0  0  0  0  0  0  0  0  0  0  0  0
   15.4160    4.5110   15.6880 C   0  0  0  0  0  0  0  0  0  0  0  0
   15.8360    1.2440   17.5940 C   0  0  0  0  0  0  0  0  0  0  0  0
   14.8910    0.5060   18.3070 C   0  0  0  0  0  0  0  0  0  0  0  0
   15.1570   -0.8190   18.6180 C   0  0  0  0  0  0  0  0  0  0  0  0
   16.3560   -1.3700   18.2110 C   0  0  0  0  0  0  0  0  0  0  0  0
   17.2930   -0.6920   17.5330 N   0  0  0  0  0  0  0  0  0  0  0  0
   17.0190    0.5700   17.2410 C   0  0  0  0  0  0  0  0  0  0  0  0
   17.8830    1.2990   16.5000 O   0  0  0  0  0  0  0  0  0  0  0  0
   19.1780    0.7480   16.2400 C   0  0  0  0  0  0  0  0  0  0  0  0
   19.9710    1.7950   15.5710 C   0  0  0  0  0  0  0  0  0  0  0  0
 14 13  1  0
 13 12  1  0
 12 11  1  0
 11 10  2  0
 10  9  1  0
  9  8  2  0
  8  7  1  0
  7  6  2  0
 11  6  1  0
  6  2  1  0
  2  1  2  0
  3  2  1  0
  5  3  1  0
  4  3  1  0
M  END
>  <id>  (60) 
5848

>  <inchikey>  (60) 
FXLCBVVYURBPIJ-UHFFFAOYSA-N

>  <alias>  (60) 
c0522a

>  <smiles>  (60) 
CCOc1ncccc1C(=O)N(C)C

>  <path>  (60) 
/opt/xchem-fragalysis-2/maxwin/CHIKV_Mac_20240920/aligned_files/c0522a/c0522a_hippo.pdb

>  <compound>  (60) 
FXLCBVVYURBPIJ-UHFFFAOYSA-N

>  <target>  (60) 
CHIKV_Mac

>  <tags>  (60) 
['hits', '[Other] Trp148 site', '[Other] fragment screen']

>  <reference>  (60) 
None

>  <exports>  (60) 
['/opt/xchem-fragalysis-2/maxwin/CHIKV_HIPPO/web_resources/hit_poses.sdf', '/opt/xchem-fragalysis-2/maxwin/CHIKV_HIPPO/web/web_resources/hit_poses.sdf', '/opt/xchem-fragalysis-2/maxwin/CHIKV_HIPPO/web2/web_resources/hit_poses.sdf']

>  <observation_longname>  (60) 
nan

>  <ConformerSites alias>  (60) 
nan

>  <CanonSites alias>  (60) 
nan

>  <CrystalformSites alias>  (60) 
nan

>  <Quatassemblies alias>  (60) 
nan

>  <Crystalforms alias>  (60) 
nan

$$$$
c0522b
     RDKit          3D

 14 14  0  0  0  0  0  0  0  0999 V2000
   15.4050    3.3310   18.2090 O   0  0  0  0  0  0  0  0  0  0  0  0
   15.6720    2.6030   17.2670 C   0  0  0  0  0  0  0  0  0  0  0  0
   15.7350    3.0560   16.0040 N   0  0  0  0  0  0  0  0  0  0  0  0
   15.9880    2.2690   14.7990 C   0  0  0  0  0  0  0  0  0  0  0  0
   15.5200    4.4880   15.7740 C   0  0  0  0  0  0  0  0  0  0  0  0
   15.8990    1.1410   17.5380 C   0  0  0  0  0  0  0  0  0  0  0  0
   14.9000    0.4410   18.2180 C   0  0  0  0  0  0  0  0  0  0  0  0
   15.1330   -0.8680   18.6140 C   0  0  0  0  0  0  0  0  0  0  0  0
   16.3500   -1.4460   18.3130 C   0  0  0  0  0  0  0  0  0  0  0  0
   17.3260   -0.8150   17.6430 N   0  0  0  0  0  0  0  0  0  0  0  0
   17.0890    0.4340   17.2740 C   0  0  0  0  0  0  0  0  0  0  0  0
   18.0310    1.1160   16.5860 O   0  0  0  0  0  0  0  0  0  0  0  0
   19.2260    0.4070   16.2030 C   0  0  0  0  0  0  0  0  0  0  0  0
   20.1190    1.3530   15.4890 C   0  0  0  0  0  0  0  0  0  0  0  0
 14 13  1  0
 13 12  1  0
 12 11  1  0
 11 10  2  0
 10  9  1  0
  9  8  2  0
  8  7  1  0
  7  6  2  0
 11  6  1  0
  6  2  1  0
  2  1  2  0
  3  2  1  0
  5  3  1  0
  4  3  1  0
M  END
>  <id>  (61) 
5849

>  <inchikey>  (61) 
FXLCBVVYURBPIJ-UHFFFAOYSA-N

>  <alias>  (61) 
c0522b

>  <smiles>  (61) 
CCOc1ncccc1C(=O)N(C)C

>  <path>  (61) 
/opt/xchem-fragalysis-2/maxwin/CHIKV_Mac_20240920/aligned_files/c0522b/c0522b_hippo.pdb

>  <compound>  (61) 
FXLCBVVYURBPIJ-UHFFFAOYSA-N

>  <target>  (61) 
CHIKV_Mac

>  <tags>  (61) 
['hits', '[Other] Trp148 site', '[Other] fragment screen']

>  <reference>  (61) 
None

>  <exports>  (61) 
['/opt/xchem-fragalysis-2/maxwin/CHIKV_HIPPO/web_resources/hit_poses.sdf', '/opt/xchem-fragalysis-2/maxwin/CHIKV_HIPPO/web/web_resources/hit_poses.sdf', '/opt/xchem-fragalysis-2/maxwin/CHIKV_HIPPO/web2/web_resources/hit_poses.sdf']

>  <observation_longname>  (61) 
CHIKV_MacB-x0522_B_401_1_CHIKV_MacB-x2352+C+401+1

>  <ConformerSites alias>  (61) 
1a - c2352/C/401

>  <CanonSites alias>  (61) 
1 - c2352/C/401/1

>  <CrystalformSites alias>  (61) 
F1a - c0270/A/304

>  <Quatassemblies alias>  (61) 
A1 - monomer

>  <Crystalforms alias>  (61) 
F1 - P31-4fold-NCS

$$$$
c0522c
     RDKit          3D

 14 14  0  0  0  0  0  0  0  0999 V2000
   15.3630    3.5310   17.9750 O   0  0  0  0  0  0  0  0  0  0  0  0
   15.6560    2.7790   17.0660 C   0  0  0  0  0  0  0  0  0  0  0  0
   15.7480    3.1870   15.7890 N   0  0  0  0  0  0  0  0  0  0  0  0
   16.0550    2.3340   14.6390 C   0  0  0  0  0  0  0  0  0  0  0  0
   15.5290    4.5930   15.4420 C   0  0  0  0  0  0  0  0  0  0  0  0
   15.9110    1.3330   17.3910 C   0  0  0  0  0  0  0  0  0  0  0  0
   14.9130    0.5840   18.0170 C   0  0  0  0  0  0  0  0  0  0  0  0
   15.1490   -0.7510   18.3060 C   0  0  0  0  0  0  0  0  0  0  0  0
   16.3700   -1.3020   17.9610 C   0  0  0  0  0  0  0  0  0  0  0  0
   17.3580   -0.6110   17.3700 N   0  0  0  0  0  0  0  0  0  0  0  0
   17.1170    0.6670   17.1160 C   0  0  0  0  0  0  0  0  0  0  0  0
   18.0900    1.4530   16.6080 O   0  0  0  0  0  0  0  0  0  0  0  0
   19.2470    0.8150   16.0460 C   0  0  0  0  0  0  0  0  0  0  0  0
   19.8420    1.7620   15.0650 C   0  0  0  0  0  0  0  0  0  0  0  0
 14 13  1  0
 13 12  1  0
 12 11  1  0
 11 10  2  0
 10  9  1  0
  9  8  2  0
  8  7  1  0
  7  6  2  0
 11  6  1  0
  6  2  1  0
  2  1  2  0
  3  2  1  0
  5  3  1  0
  4  3  1  0
M  END
>  <id>  (62) 
5850

>  <inchikey>  (62) 
FXLCBVVYURBPIJ-UHFFFAOYSA-N

>  <alias>  (62) 
c0522c

>  <smiles>  (62) 
CCOc1ncccc1C(=O)N(C)C

>  <path>  (62) 
/opt/xchem-fragalysis-2/maxwin/CHIKV_Mac_20240920/aligned_files/c0522c/c0522c_hippo.pdb

>  <compound>  (62) 
FXLCBVVYURBPIJ-UHFFFAOYSA-N

>  <target>  (62) 
CHIKV_Mac

>  <tags>  (62) 
['hits', '[Other] Trp148 site', '[Other] fragment screen']

>  <reference>  (62) 
None

>  <exports>  (62) 
['/opt/xchem-fragalysis-2/maxwin/CHIKV_HIPPO/web_resources/hit_poses.sdf', '/opt/xchem-fragalysis-2/maxwin/CHIKV_HIPPO/web/web_resources/hit_poses.sdf', '/opt/xchem-fragalysis-2/maxwin/CHIKV_HIPPO/web2/web_resources/hit_poses.sdf']

>  <observation_longname>  (62) 
nan

>  <ConformerSites alias>  (62) 
nan

>  <CanonSites alias>  (62) 
nan

>  <CrystalformSites alias>  (62) 
nan

>  <Quatassemblies alias>  (62) 
nan

>  <Crystalforms alias>  (62) 
nan

$$$$
c0540a
     RDKit          3D

 14 14  0  0  0  0  0  0  0  0999 V2000
   19.6930   -4.7500   18.0190 F   0  0  0  0  0  0  0  0  0  0  0  0
   18.6750   -3.9850   18.4990 C   0  0  0  0  0  0  0  0  0  0  0  0
   18.1330   -4.3120   19.7110 C   0  0  0  0  0  0  0  0  0  0  0  0
   17.0850   -3.5410   20.1830 C   0  0  0  0  0  0  0  0  0  0  0  0
   16.5970   -2.4790   19.4390 C   0  0  0  0  0  0  0  0  0  0  0  0
   18.2330   -2.9360   17.7260 C   0  0  0  0  0  0  0  0  0  0  0  0
   17.1730   -2.1860   18.2170 C   0  0  0  0  0  0  0  0  0  0  0  0
   16.6020   -1.1410   17.5390 O   0  0  0  0  0  0  0  0  0  0  0  0
   17.4360   -0.1910   16.8790 C   0  0  0  0  0  0  0  0  0  0  0  0
   16.5710    0.7710   16.0700 C   0  0  0  0  0  0  0  0  0  0  0  0
   15.3770    0.5390   15.9290 O   0  0  0  0  0  0  0  0  0  0  0  0
   17.1490    1.8570   15.5250 N   0  0  0  0  0  0  0  0  0  0  0  0
   18.5930    1.9820   15.3160 C   0  0  0  0  0  0  0  0  0  0  0  0
   16.3600    3.0050   15.0850 C   0  0  0  0  0  0  0  0  0  0  0  0
 14 12  1  0
 13 12  1  0
 12 10  1  0
 11 10  2  0
 10  9  1  0
  9  8  1  0
  8  7  1  0
  7  5  1  0
  5  4  2  0
  4  3  1  0
  3  2  2  0
  2  1  1  0
  6  2  1  0
  7  6  2  0
M  END
>  <id>  (63) 
5851

>  <inchikey>  (63) 
CEYGCTDHMLPHQC-UHFFFAOYSA-N

>  <alias>  (63) 
c0540a

>  <smiles>  (63) 
CN(C)C(=O)COc1cccc(F)c1

>  <path>  (63) 
/opt/xchem-fragalysis-2/maxwin/CHIKV_Mac_20240920/aligned_files/c0540a/c0540a.pdb

>  <compound>  (63) 
CEYGCTDHMLPHQC-UHFFFAOYSA-N

>  <target>  (63) 
CHIKV_Mac

>  <tags>  (63) 
['hits', '[Other] Trp148 site', '[Other] fragment screen']

>  <reference>  (63) 
None

>  <exports>  (63) 
['/opt/xchem-fragalysis-2/maxwin/CHIKV_HIPPO/web_resources/hit_poses.sdf', '/opt/xchem-fragalysis-2/maxwin/CHIKV_HIPPO/web/web_resources/hit_poses.sdf', '/opt/xchem-fragalysis-2/maxwin/CHIKV_HIPPO/web2/web_resources/hit_poses.sdf']

>  <observation_longname>  (63) 
nan

>  <ConformerSites alias>  (63) 
nan

>  <CanonSites alias>  (63) 
nan

>  <CrystalformSites alias>  (63) 
nan

>  <Quatassemblies alias>  (63) 
nan

>  <Crystalforms alias>  (63) 
nan

$$$$
c0543c
     RDKit          3D

 16 17  0  0  0  0  0  0  0  0999 V2000
    0.0070   22.5320   15.3880 O   0  0  0  0  0  0  0  0  0  0  0  0
   -0.9300   21.7870   15.1220 C   0  0  0  0  0  0  0  0  0  0  0  0
   -1.1240   20.5860   15.9930 C   0  0  0  0  0  0  0  0  0  0  0  0
   -0.5310   20.6900   17.2260 O   0  0  0  0  0  0  0  0  0  0  0  0
   -0.7860   19.5010   17.8700 C   0  0  0  0  0  0  0  0  0  0  0  0
   -1.4960   18.6880   17.0940 C   0  0  0  0  0  0  0  0  0  0  0  0
   -1.7240   19.3800   15.8720 C   0  0  0  0  0  0  0  0  0  0  0  0
   -1.7690   22.0320   14.0970 N   0  0  0  0  0  0  0  0  0  0  0  0
   -3.0470   21.3660   13.8000 C   0  0  0  0  0  0  0  0  0  0  0  0
   -4.0810   22.3800   13.3330 C   0  0  0  0  0  0  0  0  0  0  0  0
   -1.4380   23.1140   13.1630 C   0  0  0  0  0  0  0  0  0  0  0  0
   -2.1900   22.9430   11.8690 C   0  0  0  0  0  0  0  0  0  0  0  0
   -3.6340   23.0450   12.1030 N   0  0  0  0  0  0  0  0  0  0  0  0
   -4.4740   23.9660   11.4000 C   0  0  0  0  0  0  0  0  0  0  0  0
   -5.6630   24.0490   11.7340 O   0  0  0  0  0  0  0  0  0  0  0  0
   -3.9430   24.7110   10.4230 N   0  0  0  0  0  0  0  0  0  0  0  0
 16 14  1  0
 15 14  2  0
 14 13  1  0
 13 10  1  0
 10  9  1  0
  9  8  1  0
 11  8  1  0
 12 11  1  0
 13 12  1  0
  8  2  1  0
  2  1  2  0
  3  2  1  0
  3  7  2  0
  7  6  1  0
  6  5  2  0
  5  4  1  0
  4  3  1  0
M  END
>  <id>  (64) 
5852

>  <inchikey>  (64) 
TWRIXENNPDTMSQ-UHFFFAOYSA-N

>  <alias>  (64) 
c0543c

>  <smiles>  (64) 
NC(=O)N1CCN(C(=O)c2ccco2)CC1

>  <path>  (64) 
/opt/xchem-fragalysis-2/maxwin/CHIKV_Mac_20240920/aligned_files/c0543c/c0543c_hippo.pdb

>  <compound>  (64) 
TWRIXENNPDTMSQ-UHFFFAOYSA-N

>  <target>  (64) 
CHIKV_Mac

>  <tags>  (64) 
['[Other] ignore', 'hits']

>  <reference>  (64) 
None

>  <exports>  (64) 
['/opt/xchem-fragalysis-2/maxwin/CHIKV_HIPPO/web_resources/hit_poses.sdf', '/opt/xchem-fragalysis-2/maxwin/CHIKV_HIPPO/web/web_resources/hit_poses.sdf', '/opt/xchem-fragalysis-2/maxwin/CHIKV_HIPPO/web2/web_resources/hit_poses.sdf']

>  <observation_longname>  (64) 
nan

>  <ConformerSites alias>  (64) 
nan

>  <CanonSites alias>  (64) 
nan

>  <CrystalformSites alias>  (64) 
nan

>  <Quatassemblies alias>  (64) 
nan

>  <Crystalforms alias>  (64) 
nan

$$$$
c0543a
     RDKit          3D

 16 17  0  0  0  0  0  0  0  0999 V2000
   19.1280    1.0820   16.6050 O   0  0  0  0  0  0  0  0  0  0  0  0
   17.9230    1.3220   16.6000 C   0  0  0  0  0  0  0  0  0  0  0  0
   17.0050    0.4270   17.4070 C   0  0  0  0  0  0  0  0  0  0  0  0
   17.3170   -0.9060   17.3800 O   0  0  0  0  0  0  0  0  0  0  0  0
   16.3690   -1.5400   18.1440 C   0  0  0  0  0  0  0  0  0  0  0  0
   15.5020   -0.6680   18.6340 C   0  0  0  0  0  0  0  0  0  0  0  0
   15.8980    0.6150   18.1680 C   0  0  0  0  0  0  0  0  0  0  0  0
   17.4220    2.3440   15.8780 N   0  0  0  0  0  0  0  0  0  0  0  0
   16.0180    2.6250   15.5640 C   0  0  0  0  0  0  0  0  0  0  0  0
   15.7910    2.4900   14.0730 C   0  0  0  0  0  0  0  0  0  0  0  0
   18.2770    3.3290   15.2120 C   0  0  0  0  0  0  0  0  0  0  0  0
   18.1260    3.1980   13.7180 C   0  0  0  0  0  0  0  0  0  0  0  0
   16.7160    3.3560   13.3280 N   0  0  0  0  0  0  0  0  0  0  0  0
   16.4940    3.6920   11.9580 C   0  0  0  0  0  0  0  0  0  0  0  0
   17.4840    4.0470   11.3160 O   0  0  0  0  0  0  0  0  0  0  0  0
   15.2690    3.6170   11.4170 N   0  0  0  0  0  0  0  0  0  0  0  0
 16 14  1  0
 15 14  2  0
 14 13  1  0
 13 10  1  0
 10  9  1  0
  9  8  1  0
 11  8  1  0
 12 11  1  0
 13 12  1  0
  8  2  1  0
  2  1  2  0
  3  2  1  0
  3  7  2  0
  7  6  1  0
  6  5  2  0
  5  4  1  0
  4  3  1  0
M  END
>  <id>  (65) 
5853

>  <inchikey>  (65) 
TWRIXENNPDTMSQ-UHFFFAOYSA-N

>  <alias>  (65) 
c0543a

>  <smiles>  (65) 
NC(=O)N1CCN(C(=O)c2ccco2)CC1

>  <path>  (65) 
/opt/xchem-fragalysis-2/maxwin/CHIKV_Mac_20240920/aligned_files/c0543a/c0543a_hippo.pdb

>  <compound>  (65) 
TWRIXENNPDTMSQ-UHFFFAOYSA-N

>  <target>  (65) 
CHIKV_Mac

>  <tags>  (65) 
['[Other] Oxyanion site', 'hits', '[Other] Trp148 site', '[Other] fragment screen']

>  <reference>  (65) 
None

>  <exports>  (65) 
['/opt/xchem-fragalysis-2/maxwin/CHIKV_HIPPO/web_resources/hit_poses.sdf', '/opt/xchem-fragalysis-2/maxwin/CHIKV_HIPPO/web/web_resources/hit_poses.sdf', '/opt/xchem-fragalysis-2/maxwin/CHIKV_HIPPO/web2/web_resources/hit_poses.sdf']

>  <observation_longname>  (65) 
nan

>  <ConformerSites alias>  (65) 
nan

>  <CanonSites alias>  (65) 
nan

>  <CrystalformSites alias>  (65) 
nan

>  <Quatassemblies alias>  (65) 
nan

>  <Crystalforms alias>  (65) 
nan

$$$$
c0543b
     RDKit          3D

 16 17  0  0  0  0  0  0  0  0999 V2000
   19.1160    1.0800   16.0930 O   0  0  0  0  0  0  0  0  0  0  0  0
   17.9280    1.3270   16.2680 C   0  0  0  0  0  0  0  0  0  0  0  0
   17.1320    0.3760   17.1310 C   0  0  0  0  0  0  0  0  0  0  0  0
   17.6230   -0.9060   17.1910 O   0  0  0  0  0  0  0  0  0  0  0  0
   16.7600   -1.6140   17.9970 C   0  0  0  0  0  0  0  0  0  0  0  0
   15.7740   -0.8310   18.4310 C   0  0  0  0  0  0  0  0  0  0  0  0
   16.0050    0.4680   17.8790 C   0  0  0  0  0  0  0  0  0  0  0  0
   17.3390    2.3910   15.6880 N   0  0  0  0  0  0  0  0  0  0  0  0
   18.0870    3.5110   15.1140 C   0  0  0  0  0  0  0  0  0  0  0  0
   17.8570    3.5640   13.6180 C   0  0  0  0  0  0  0  0  0  0  0  0
   15.9070    2.6080   15.4860 C   0  0  0  0  0  0  0  0  0  0  0  0
   15.5950    2.6480   14.0090 C   0  0  0  0  0  0  0  0  0  0  0  0
   16.4210    3.6480   13.3210 N   0  0  0  0  0  0  0  0  0  0  0  0
   16.0740    3.9750   11.9570 C   0  0  0  0  0  0  0  0  0  0  0  0
   16.8880    4.6240   11.2940 O   0  0  0  0  0  0  0  0  0  0  0  0
   14.9020    3.5740   11.4580 N   0  0  0  0  0  0  0  0  0  0  0  0
 16 14  1  0
 15 14  2  0
 14 13  1  0
 13 10  1  0
 10  9  1  0
  9  8  1  0
 11  8  1  0
 12 11  1  0
 13 12  1  0
  8  2  1  0
  2  1  2  0
  3  2  1  0
  3  7  2  0
  7  6  1  0
  6  5  2  0
  5  4  1  0
  4  3  1  0
M  END
>  <id>  (66) 
5854

>  <inchikey>  (66) 
TWRIXENNPDTMSQ-UHFFFAOYSA-N

>  <alias>  (66) 
c0543b

>  <smiles>  (66) 
NC(=O)N1CCN(C(=O)c2ccco2)CC1

>  <path>  (66) 
/opt/xchem-fragalysis-2/maxwin/CHIKV_Mac_20240920/aligned_files/c0543b/c0543b_hippo.pdb

>  <compound>  (66) 
TWRIXENNPDTMSQ-UHFFFAOYSA-N

>  <target>  (66) 
CHIKV_Mac

>  <tags>  (66) 
['[Other] Oxyanion site', 'hits', '[Other] Trp148 site', '[Other] fragment screen']

>  <reference>  (66) 
None

>  <exports>  (66) 
['/opt/xchem-fragalysis-2/maxwin/CHIKV_HIPPO/web_resources/hit_poses.sdf', '/opt/xchem-fragalysis-2/maxwin/CHIKV_HIPPO/web/web_resources/hit_poses.sdf', '/opt/xchem-fragalysis-2/maxwin/CHIKV_HIPPO/web2/web_resources/hit_poses.sdf']

>  <observation_longname>  (66) 
nan

>  <ConformerSites alias>  (66) 
nan

>  <CanonSites alias>  (66) 
nan

>  <CrystalformSites alias>  (66) 
nan

>  <Quatassemblies alias>  (66) 
nan

>  <Crystalforms alias>  (66) 
nan

$$$$
c0544a
     RDKit          3D

 14 14  0  0  0  0  0  0  0  0999 V2000
   14.3860   15.9270   14.9140 O   0  0  0  0  0  0  0  0  0  0  0  0
   14.9740   16.0190   13.8290 C   0  0  0  0  0  0  0  0  0  0  0  0
   15.2040   17.1900   13.2350 N   0  0  0  0  0  0  0  0  0  0  0  0
   15.3870   14.9160   13.1260 N   0  0  0  0  0  0  0  0  0  0  0  0
   15.1740   13.5430   13.4210 C   0  0  0  0  0  0  0  0  0  0  0  0
   14.9120   13.1070   14.7160 C   0  0  0  0  0  0  0  0  0  0  0  0
   14.7160   11.7570   14.9650 C   0  0  0  0  0  0  0  0  0  0  0  0
   14.7890   10.8330   13.9360 C   0  0  0  0  0  0  0  0  0  0  0  0
   15.2500   12.6140   12.3830 C   0  0  0  0  0  0  0  0  0  0  0  0
   15.0680   11.2560   12.6430 C   0  0  0  0  0  0  0  0  0  0  0  0
   15.2180   10.2370   11.6690 N   0  0  0  0  0  0  0  0  0  0  0  0
   14.9520   10.2690   10.3370 C   0  0  0  0  0  0  0  0  0  0  0  0
   14.9020   11.3110    9.6910 O   0  0  0  0  0  0  0  0  0  0  0  0
   14.7270    8.9290    9.7000 C   0  0  0  0  0  0  0  0  0  0  0  0
 14 12  1  0
 13 12  2  0
 12 11  1  0
 11 10  1  0
 10  8  1  0
  8  7  2  0
  7  6  1  0
  6  5  2  0
  5  4  1  0
  4  2  1  0
  2  1  2  0
  3  2  1  0
  9  5  1  0
 10  9  2  0
M  END
>  <id>  (67) 
5855

>  <inchikey>  (67) 
GVNXANNAMKHSRF-UHFFFAOYSA-N

>  <alias>  (67) 
c0544a

>  <smiles>  (67) 
CC(=O)Nc1cccc(NC(N)=O)c1

>  <path>  (67) 
/opt/xchem-fragalysis-2/maxwin/CHIKV_Mac_20240920/aligned_files/c0544a/c0544a.pdb

>  <compound>  (67) 
GVNXANNAMKHSRF-UHFFFAOYSA-N

>  <target>  (67) 
CHIKV_Mac

>  <tags>  (67) 
['[Other] Adenine site', 'hits', '[Other] fragment screen']

>  <reference>  (67) 
None

>  <exports>  (67) 
['/opt/xchem-fragalysis-2/maxwin/CHIKV_HIPPO/web_resources/hit_poses.sdf', '/opt/xchem-fragalysis-2/maxwin/CHIKV_HIPPO/web/web_resources/hit_poses.sdf', '/opt/xchem-fragalysis-2/maxwin/CHIKV_HIPPO/web2/web_resources/hit_poses.sdf']

>  <observation_longname>  (67) 
nan

>  <ConformerSites alias>  (67) 
nan

>  <CanonSites alias>  (67) 
nan

>  <CrystalformSites alias>  (67) 
nan

>  <Quatassemblies alias>  (67) 
nan

>  <Crystalforms alias>  (67) 
nan

$$$$
c0553a
     RDKit          3D

 14 14  0  0  0  0  0  0  0  0999 V2000
   15.5010    7.4740   12.2060 N   0  0  0  0  0  0  0  0  0  0  0  0
   15.3170    8.5830   11.9790 C   0  0  0  0  0  0  0  0  0  0  0  0
   15.0760    9.9470   11.6230 C   0  0  0  0  0  0  0  0  0  0  0  0
   15.0370   10.4520   10.2960 C   0  0  0  0  0  0  0  0  0  0  0  0
   15.5420    9.8110    9.0460 C   0  0  0  0  0  0  0  0  0  0  0  0
   14.6270   11.6880   10.1390 N   0  0  0  0  0  0  0  0  0  0  0  0
   14.3050   12.3960   11.6000 S   0  0  0  0  0  0  0  0  0  0  0  0
   14.7190   10.9790   12.4890 C   0  0  0  0  0  0  0  0  0  0  0  0
   14.7360   11.0320   13.8600 N   0  0  0  0  0  0  0  0  0  0  0  0
   14.7160   12.3070   14.5630 C   0  0  0  0  0  0  0  0  0  0  0  0
   14.7980    9.8290   14.6790 C   0  0  0  0  0  0  0  0  0  0  0  0
   16.2220    9.4370   15.0470 C   0  0  0  0  0  0  0  0  0  0  0  0
   17.0840   10.3010   15.2320 O   0  0  0  0  0  0  0  0  0  0  0  0
   16.4650    8.1370   15.1470 N   0  0  0  0  0  0  0  0  0  0  0  0
 10  9  1  0
 11  9  1  0
 12 11  1  0
 13 12  2  0
 14 12  1  0
  9  8  1  0
  8  7  1  0
  7  6  1  0
  6  4  2  0
  5  4  1  0
  4  3  1  0
  8  3  2  0
  3  2  1  0
  2  1  3  0
M  END
>  <id>  (68) 
5856

>  <inchikey>  (68) 
BCFQGXBWVPWHCV-UHFFFAOYSA-N

>  <alias>  (68) 
c0553a

>  <smiles>  (68) 
Cc1nsc(N(C)CC(N)=O)c1C#N

>  <path>  (68) 
/opt/xchem-fragalysis-2/maxwin/CHIKV_Mac_20240920/aligned_files/c0553a/c0553a_hippo.pdb

>  <compound>  (68) 
BCFQGXBWVPWHCV-UHFFFAOYSA-N

>  <target>  (68) 
CHIKV_Mac

>  <tags>  (68) 
['[Other] Adenine site', 'hits', '[Other] fragment screen']

>  <reference>  (68) 
None

>  <exports>  (68) 
['/opt/xchem-fragalysis-2/maxwin/CHIKV_HIPPO/web_resources/hit_poses.sdf', '/opt/xchem-fragalysis-2/maxwin/CHIKV_HIPPO/web/web_resources/hit_poses.sdf', '/opt/xchem-fragalysis-2/maxwin/CHIKV_HIPPO/web2/web_resources/hit_poses.sdf']

>  <observation_longname>  (68) 
nan

>  <ConformerSites alias>  (68) 
nan

>  <CanonSites alias>  (68) 
nan

>  <CrystalformSites alias>  (68) 
nan

>  <Quatassemblies alias>  (68) 
nan

>  <Crystalforms alias>  (68) 
nan

$$$$
c0553b
     RDKit          3D

 14 14  0  0  0  0  0  0  0  0999 V2000
   15.5850    7.1430   12.1440 N   0  0  0  0  0  0  0  0  0  0  0  0
   15.4600    8.2600   11.9240 C   0  0  0  0  0  0  0  0  0  0  0  0
   15.3070    9.6680   11.7290 C   0  0  0  0  0  0  0  0  0  0  0  0
   15.0110   10.3430   10.4970 C   0  0  0  0  0  0  0  0  0  0  0  0
   14.8530    9.7720    9.1260 C   0  0  0  0  0  0  0  0  0  0  0  0
   14.8630   11.6490   10.5800 N   0  0  0  0  0  0  0  0  0  0  0  0
   15.0780   12.2010   12.1380 S   0  0  0  0  0  0  0  0  0  0  0  0
   15.3820   10.6230   12.7380 C   0  0  0  0  0  0  0  0  0  0  0  0
   15.6510   10.4610   14.0540 N   0  0  0  0  0  0  0  0  0  0  0  0
   14.7850    9.6530   14.9020 C   0  0  0  0  0  0  0  0  0  0  0  0
   16.8000   11.1020   14.6830 C   0  0  0  0  0  0  0  0  0  0  0  0
   17.7170   10.1660   15.4600 C   0  0  0  0  0  0  0  0  0  0  0  0
   18.6770   10.6130   16.0950 O   0  0  0  0  0  0  0  0  0  0  0  0
   17.4300    8.8730   15.4060 N   0  0  0  0  0  0  0  0  0  0  0  0
 10  9  1  0
 11  9  1  0
 12 11  1  0
 13 12  2  0
 14 12  1  0
  9  8  1  0
  8  7  1  0
  7  6  1  0
  6  4  2  0
  5  4  1  0
  4  3  1  0
  8  3  2  0
  3  2  1  0
  2  1  3  0
M  END
>  <id>  (69) 
5857

>  <inchikey>  (69) 
BCFQGXBWVPWHCV-UHFFFAOYSA-N

>  <alias>  (69) 
c0553b

>  <smiles>  (69) 
Cc1nsc(N(C)CC(N)=O)c1C#N

>  <path>  (69) 
/opt/xchem-fragalysis-2/maxwin/CHIKV_Mac_20240920/aligned_files/c0553b/c0553b_hippo.pdb

>  <compound>  (69) 
BCFQGXBWVPWHCV-UHFFFAOYSA-N

>  <target>  (69) 
CHIKV_Mac

>  <tags>  (69) 
['[Other] Adenine site', 'hits', '[Other] fragment screen']

>  <reference>  (69) 
None

>  <exports>  (69) 
['/opt/xchem-fragalysis-2/maxwin/CHIKV_HIPPO/web_resources/hit_poses.sdf', '/opt/xchem-fragalysis-2/maxwin/CHIKV_HIPPO/web/web_resources/hit_poses.sdf', '/opt/xchem-fragalysis-2/maxwin/CHIKV_HIPPO/web2/web_resources/hit_poses.sdf']

>  <observation_longname>  (69) 
CHIKV_MacB-x0553_B_304_1_CHIKV_MacB-x2352+C+401+1

>  <ConformerSites alias>  (69) 
1a - c2352/C/401

>  <CanonSites alias>  (69) 
1 - c2352/C/401/1

>  <CrystalformSites alias>  (69) 
F1a - c0270/A/304

>  <Quatassemblies alias>  (69) 
A1 - monomer

>  <Crystalforms alias>  (69) 
F1 - P31-4fold-NCS

$$$$
c0585a
     RDKit          3D

 15 16  0  0  0  0  0  0  0  0999 V2000
   14.5270    0.6960   15.9210 O   0  0  0  0  0  0  0  0  0  0  0  0
   15.5330    0.8280   16.5970 C   0  0  0  0  0  0  0  0  0  0  0  0
   15.7290   -0.0560   17.7850 C   0  0  0  0  0  0  0  0  0  0  0  0
   16.5520   -1.1790   17.7440 C   0  0  0  0  0  0  0  0  0  0  0  0
   16.5970   -2.0550   18.8170 C   0  0  0  0  0  0  0  0  0  0  0  0
   15.8350   -1.8150   19.9490 C   0  0  0  0  0  0  0  0  0  0  0  0
   14.9810    0.2020   18.9280 C   0  0  0  0  0  0  0  0  0  0  0  0
   15.0640   -0.6810   19.9740 C   0  0  0  0  0  0  0  0  0  0  0  0
   14.3840   -0.3850   21.1130 F   0  0  0  0  0  0  0  0  0  0  0  0
   16.4510    1.7820   16.3350 N   0  0  0  0  0  0  0  0  0  0  0  0
   16.0970    3.2040   16.2860 C   0  0  0  0  0  0  0  0  0  0  0  0
   16.4520    3.7650   14.9310 C   0  0  0  0  0  0  0  0  0  0  0  0
   17.8780    3.5740   14.6660 N   0  0  0  0  0  0  0  0  0  0  0  0
   18.2220    2.1470   14.7130 C   0  0  0  0  0  0  0  0  0  0  0  0
   17.8720    1.5480   16.0570 C   0  0  0  0  0  0  0  0  0  0  0  0
  9  8  1  0
  8  6  2  0
  6  5  1  0
  5  4  2  0
  4  3  1  0
  7  3  2  0
  8  7  1  0
  3  2  1  0
  2  1  2  0
 10  2  1  0
 10 15  1  0
 15 14  1  0
 14 13  1  0
 13 12  1  0
 12 11  1  0
 11 10  1  0
M  END
>  <id>  (70) 
5858

>  <inchikey>  (70) 
KXFXHXPKGLLUGX-UHFFFAOYSA-N

>  <alias>  (70) 
c0585a

>  <smiles>  (70) 
O=C(c1cccc(F)c1)N1CCNCC1

>  <path>  (70) 
/opt/xchem-fragalysis-2/maxwin/CHIKV_Mac_20240920/aligned_files/c0585a/c0585a_hippo.pdb

>  <compound>  (70) 
KXFXHXPKGLLUGX-UHFFFAOYSA-N

>  <target>  (70) 
CHIKV_Mac

>  <tags>  (70) 
['hits', '[Other] Trp148 site', '[Other] fragment screen']

>  <reference>  (70) 
None

>  <exports>  (70) 
['/opt/xchem-fragalysis-2/maxwin/CHIKV_HIPPO/web_resources/hit_poses.sdf', '/opt/xchem-fragalysis-2/maxwin/CHIKV_HIPPO/web/web_resources/hit_poses.sdf', '/opt/xchem-fragalysis-2/maxwin/CHIKV_HIPPO/web2/web_resources/hit_poses.sdf']

>  <observation_longname>  (70) 
nan

>  <ConformerSites alias>  (70) 
nan

>  <CanonSites alias>  (70) 
nan

>  <CrystalformSites alias>  (70) 
nan

>  <Quatassemblies alias>  (70) 
nan

>  <Crystalforms alias>  (70) 
nan

$$$$
c0585b
     RDKit          3D

 15 16  0  0  0  0  0  0  0  0999 V2000
   14.8730    0.5960   15.7710 O   0  0  0  0  0  0  0  0  0  0  0  0
   15.9820    0.6050   16.2780 C   0  0  0  0  0  0  0  0  0  0  0  0
   16.3310   -0.4550   17.2770 C   0  0  0  0  0  0  0  0  0  0  0  0
   17.4000   -1.3250   17.0900 C   0  0  0  0  0  0  0  0  0  0  0  0
   17.6120   -2.3750   17.9700 C   0  0  0  0  0  0  0  0  0  0  0  0
   16.7690   -2.5630   19.0510 C   0  0  0  0  0  0  0  0  0  0  0  0
   15.4890   -0.6340   18.3700 C   0  0  0  0  0  0  0  0  0  0  0  0
   15.7370   -1.6820   19.2170 C   0  0  0  0  0  0  0  0  0  0  0  0
   14.9110   -1.8450   20.2790 F   0  0  0  0  0  0  0  0  0  0  0  0
   16.9060    1.5350   15.9490 N   0  0  0  0  0  0  0  0  0  0  0  0
   16.6200    2.5550   14.9360 C   0  0  0  0  0  0  0  0  0  0  0  0
   16.7730    3.9190   15.5480 C   0  0  0  0  0  0  0  0  0  0  0  0
   18.1310    4.0880   16.0660 N   0  0  0  0  0  0  0  0  0  0  0  0
   18.4480    3.0520   17.0580 C   0  0  0  0  0  0  0  0  0  0  0  0
   18.2690    1.6690   16.4770 C   0  0  0  0  0  0  0  0  0  0  0  0
  9  8  1  0
  8  6  2  0
  6  5  1  0
  5  4  2  0
  4  3  1  0
  7  3  2  0
  8  7  1  0
  3  2  1  0
  2  1  2  0
 10  2  1  0
 10 15  1  0
 15 14  1  0
 14 13  1  0
 13 12  1  0
 12 11  1  0
 11 10  1  0
M  END
>  <id>  (71) 
5859

>  <inchikey>  (71) 
KXFXHXPKGLLUGX-UHFFFAOYSA-N

>  <alias>  (71) 
c0585b

>  <smiles>  (71) 
O=C(c1cccc(F)c1)N1CCNCC1

>  <path>  (71) 
/opt/xchem-fragalysis-2/maxwin/CHIKV_Mac_20240920/aligned_files/c0585b/c0585b_hippo.pdb

>  <compound>  (71) 
KXFXHXPKGLLUGX-UHFFFAOYSA-N

>  <target>  (71) 
CHIKV_Mac

>  <tags>  (71) 
['hits', '[Other] Trp148 site', '[Other] fragment screen']

>  <reference>  (71) 
None

>  <exports>  (71) 
['/opt/xchem-fragalysis-2/maxwin/CHIKV_HIPPO/web_resources/hit_poses.sdf', '/opt/xchem-fragalysis-2/maxwin/CHIKV_HIPPO/web/web_resources/hit_poses.sdf', '/opt/xchem-fragalysis-2/maxwin/CHIKV_HIPPO/web2/web_resources/hit_poses.sdf']

>  <observation_longname>  (71) 
nan

>  <ConformerSites alias>  (71) 
nan

>  <CanonSites alias>  (71) 
nan

>  <CrystalformSites alias>  (71) 
nan

>  <Quatassemblies alias>  (71) 
nan

>  <Crystalforms alias>  (71) 
nan

$$$$
c0585c
     RDKit          3D

 15 16  0  0  0  0  0  0  0  0999 V2000
   14.6320    0.9490   16.2060 O   0  0  0  0  0  0  0  0  0  0  0  0
   15.7520    0.9960   16.6830 C   0  0  0  0  0  0  0  0  0  0  0  0
   16.1990   -0.0910   17.6060 C   0  0  0  0  0  0  0  0  0  0  0  0
   17.2290   -0.9560   17.2500 C   0  0  0  0  0  0  0  0  0  0  0  0
   17.6120   -1.9790   18.1030 C   0  0  0  0  0  0  0  0  0  0  0  0
   16.9740   -2.1520   19.3210 C   0  0  0  0  0  0  0  0  0  0  0  0
   15.5590   -0.2560   18.8320 C   0  0  0  0  0  0  0  0  0  0  0  0
   15.9680   -1.2830   19.6470 C   0  0  0  0  0  0  0  0  0  0  0  0
   15.3340   -1.4410   20.8390 F   0  0  0  0  0  0  0  0  0  0  0  0
   16.6060    2.0080   16.4110 N   0  0  0  0  0  0  0  0  0  0  0  0
   16.6810    2.6580   15.0990 C   0  0  0  0  0  0  0  0  0  0  0  0
   18.0950    2.5690   14.5790 C   0  0  0  0  0  0  0  0  0  0  0  0
   19.0250    3.1910   15.5270 N   0  0  0  0  0  0  0  0  0  0  0  0
   18.9490    2.5270   16.8340 C   0  0  0  0  0  0  0  0  0  0  0  0
   17.5410    2.5950   17.3780 C   0  0  0  0  0  0  0  0  0  0  0  0
  9  8  1  0
  8  6  2  0
  6  5  1  0
  5  4  2  0
  4  3  1  0
  7  3  2  0
  8  7  1  0
  3  2  1  0
  2  1  2  0
 10  2  1  0
 10 15  1  0
 15 14  1  0
 14 13  1  0
 13 12  1  0
 12 11  1  0
 11 10  1  0
M  END
>  <id>  (72) 
5860

>  <inchikey>  (72) 
KXFXHXPKGLLUGX-UHFFFAOYSA-N

>  <alias>  (72) 
c0585c

>  <smiles>  (72) 
O=C(c1cccc(F)c1)N1CCNCC1

>  <path>  (72) 
/opt/xchem-fragalysis-2/maxwin/CHIKV_Mac_20240920/aligned_files/c0585c/c0585c_hippo.pdb

>  <compound>  (72) 
KXFXHXPKGLLUGX-UHFFFAOYSA-N

>  <target>  (72) 
CHIKV_Mac

>  <tags>  (72) 
['hits', '[Other] Trp148 site', '[Other] fragment screen']

>  <reference>  (72) 
None

>  <exports>  (72) 
['/opt/xchem-fragalysis-2/maxwin/CHIKV_HIPPO/web_resources/hit_poses.sdf', '/opt/xchem-fragalysis-2/maxwin/CHIKV_HIPPO/web/web_resources/hit_poses.sdf', '/opt/xchem-fragalysis-2/maxwin/CHIKV_HIPPO/web2/web_resources/hit_poses.sdf']

>  <observation_longname>  (72) 
nan

>  <ConformerSites alias>  (72) 
nan

>  <CanonSites alias>  (72) 
nan

>  <CrystalformSites alias>  (72) 
nan

>  <Quatassemblies alias>  (72) 
nan

>  <Crystalforms alias>  (72) 
nan

$$$$
c0620a
     RDKit          3D

 18 20  0  0  0  0  0  0  0  0999 V2000
   18.2800    3.9830   11.5050 N   0  0  0  0  0  0  0  0  0  0  0  0
   17.9570    3.7410   12.5720 C   0  0  0  0  0  0  0  0  0  0  0  0
   17.6020    3.4450   13.9350 C   0  0  0  0  0  0  0  0  0  0  0  0
   16.5030    2.6390   14.2170 C   0  0  0  0  0  0  0  0  0  0  0  0
   16.1730    2.3580   15.5290 C   0  0  0  0  0  0  0  0  0  0  0  0
   16.9070    2.8810   16.5820 C   0  0  0  0  0  0  0  0  0  0  0  0
   18.0050    3.6740   16.2910 C   0  0  0  0  0  0  0  0  0  0  0  0
   18.3560    3.9580   14.9840 C   0  0  0  0  0  0  0  0  0  0  0  0
   16.4740    2.6700   18.0140 C   0  0  0  0  0  0  0  0  0  0  0  0
   15.9200    1.3410   18.2860 N   0  0  0  0  0  0  0  0  0  0  0  0
   16.6070    0.1380   18.2230 C   0  0  0  0  0  0  0  0  0  0  0  0
   15.7140   -0.8230   18.6970 C   0  0  0  0  0  0  0  0  0  0  0  0
   14.4950   -0.2240   19.0240 N   0  0  0  0  0  0  0  0  0  0  0  0
   14.6740    1.0440   18.7520 C   0  0  0  0  0  0  0  0  0  0  0  0
   17.8760   -0.1940   17.7660 C   0  0  0  0  0  0  0  0  0  0  0  0
   18.2360   -1.5350   17.7830 C   0  0  0  0  0  0  0  0  0  0  0  0
   17.3610   -2.5050   18.2680 C   0  0  0  0  0  0  0  0  0  0  0  0
   16.0990   -2.1590   18.7380 C   0  0  0  0  0  0  0  0  0  0  0  0
  2  1  3  0
  3  2  1  0
  3  8  2  0
  8  7  1  0
  7  6  2  0
  9  6  1  0
 10  9  1  0
 10 14  1  0
 14 13  2  0
 13 12  1  0
 12 18  2  0
 18 17  1  0
 17 16  2  0
 16 15  1  0
 15 11  2  0
 11 10  1  0
 12 11  1  0
  6  5  1  0
  5  4  2  0
  4  3  1  0
M  END
>  <id>  (73) 
5861

>  <inchikey>  (73) 
KZMYEQMVROHICO-UHFFFAOYSA-N

>  <alias>  (73) 
c0620a

>  <smiles>  (73) 
N#Cc1ccc(Cn2cnc3ccccc32)cc1

>  <path>  (73) 
/opt/xchem-fragalysis-2/maxwin/CHIKV_Mac_20240920/aligned_files/c0620a/c0620a.pdb

>  <compound>  (73) 
KZMYEQMVROHICO-UHFFFAOYSA-N

>  <target>  (73) 
CHIKV_Mac

>  <tags>  (73) 
['hits', '[Other] Trp148 site', '[Other] fragment screen']

>  <reference>  (73) 
None

>  <exports>  (73) 
['/opt/xchem-fragalysis-2/maxwin/CHIKV_HIPPO/web_resources/hit_poses.sdf', '/opt/xchem-fragalysis-2/maxwin/CHIKV_HIPPO/web/web_resources/hit_poses.sdf', '/opt/xchem-fragalysis-2/maxwin/CHIKV_HIPPO/web2/web_resources/hit_poses.sdf']

>  <observation_longname>  (73) 
nan

>  <ConformerSites alias>  (73) 
nan

>  <CanonSites alias>  (73) 
nan

>  <CrystalformSites alias>  (73) 
nan

>  <Quatassemblies alias>  (73) 
nan

>  <Crystalforms alias>  (73) 
nan

$$$$
c0632a
     RDKit          3D

 14 15  0  0  0  0  0  0  0  0999 V2000
   16.3570    4.4580   14.8940 C   0  0  0  0  0  0  0  0  0  0  0  0
   15.9740    3.2260   15.5870 N   0  0  0  0  0  0  0  0  0  0  0  0
   16.1530    2.0360   14.7550 C   0  0  0  0  0  0  0  0  0  0  0  0
   17.0100    1.1240   15.5300 C   0  0  0  0  0  0  0  0  0  0  0  0
   16.6020    0.0170   16.2560 C   0  0  0  0  0  0  0  0  0  0  0  0
   17.7170   -0.5470   16.7710 N   0  0  0  0  0  0  0  0  0  0  0  0
   18.8430    0.1420   16.4280 N   0  0  0  0  0  0  0  0  0  0  0  0
   18.4010    1.1420   15.6820 C   0  0  0  0  0  0  0  0  0  0  0  0
   17.8300   -1.7310   17.5630 C   0  0  0  0  0  0  0  0  0  0  0  0
   16.8170   -2.0700   18.4550 C   0  0  0  0  0  0  0  0  0  0  0  0
   16.9880   -3.1550   19.3000 C   0  0  0  0  0  0  0  0  0  0  0  0
   18.1490   -3.9080   19.2520 C   0  0  0  0  0  0  0  0  0  0  0  0
   19.1450   -3.5820   18.3510 C   0  0  0  0  0  0  0  0  0  0  0  0
   18.9920   -2.4970   17.5020 C   0  0  0  0  0  0  0  0  0  0  0  0
  2  1  1  0
  3  2  1  0
  4  3  1  0
  4  8  1  0
  8  7  2  0
  7  6  1  0
  6  5  1  0
  5  4  2  0
  9  6  1  0
  9 14  2  0
 14 13  1  0
 13 12  2  0
 12 11  1  0
 11 10  2  0
 10  9  1  0
M  END
>  <id>  (74) 
5862

>  <inchikey>  (74) 
SZXULAAYIBSASF-UHFFFAOYSA-N

>  <alias>  (74) 
c0632a

>  <smiles>  (74) 
CNCc1cnn(-c2ccccc2)c1

>  <path>  (74) 
/opt/xchem-fragalysis-2/maxwin/CHIKV_Mac_20240920/aligned_files/c0632a/c0632a.pdb

>  <compound>  (74) 
SZXULAAYIBSASF-UHFFFAOYSA-N

>  <target>  (74) 
CHIKV_Mac

>  <tags>  (74) 
['hits', '[Other] Trp148 site', '[Other] fragment screen']

>  <reference>  (74) 
None

>  <exports>  (74) 
['/opt/xchem-fragalysis-2/maxwin/CHIKV_HIPPO/web_resources/hit_poses.sdf', '/opt/xchem-fragalysis-2/maxwin/CHIKV_HIPPO/web/web_resources/hit_poses.sdf', '/opt/xchem-fragalysis-2/maxwin/CHIKV_HIPPO/web2/web_resources/hit_poses.sdf']

>  <observation_longname>  (74) 
nan

>  <ConformerSites alias>  (74) 
nan

>  <CanonSites alias>  (74) 
nan

>  <CrystalformSites alias>  (74) 
nan

>  <Quatassemblies alias>  (74) 
nan

>  <Crystalforms alias>  (74) 
nan

$$$$
c0692b
     RDKit          3D

 12 12  0  0  0  0  0  0  0  0999 V2000
   -1.5350   16.9310   -5.0980 O   0  0  0  0  0  0  0  0  0  0  0  0
   -1.6980   15.8900   -5.7270 C   0  0  0  0  0  0  0  0  0  0  0  0
   -3.0890   15.3030   -5.8450 C   0  0  0  0  0  0  0  0  0  0  0  0
   -3.1580   14.4630   -6.9800 O   0  0  0  0  0  0  0  0  0  0  0  0
   -4.4220   13.8110   -7.0820 C   0  0  0  0  0  0  0  0  0  0  0  0
   -0.6960   15.2040   -6.3190 N   0  0  0  0  0  0  0  0  0  0  0  0
    0.6640   15.5960   -6.4300 C   0  0  0  0  0  0  0  0  0  0  0  0
    1.3620   15.3810   -7.6180 C   0  0  0  0  0  0  0  0  0  0  0  0
    2.6780   15.8020   -7.7350 C   0  0  0  0  0  0  0  0  0  0  0  0
    3.3040   16.4380   -6.6820 C   0  0  0  0  0  0  0  0  0  0  0  0
    2.6190   16.6500   -5.5020 C   0  0  0  0  0  0  0  0  0  0  0  0
    1.3050   16.2280   -5.3680 C   0  0  0  0  0  0  0  0  0  0  0  0
  5  4  1  0
  4  3  1  0
  3  2  1  0
  2  1  2  0
  6  2  1  0
  7  6  1  0
  7 12  2  0
 12 11  1  0
 11 10  2  0
 10  9  1  0
  9  8  2  0
  8  7  1  0
M  END
>  <id>  (75) 
5863

>  <inchikey>  (75) 
LEQAQBFYCMENLP-UHFFFAOYSA-N

>  <alias>  (75) 
c0692b

>  <smiles>  (75) 
COCC(=O)Nc1ccccc1

>  <path>  (75) 
/opt/xchem-fragalysis-2/maxwin/CHIKV_Mac_20240920/aligned_files/c0692b/c0692b_hippo.pdb

>  <compound>  (75) 
LEQAQBFYCMENLP-UHFFFAOYSA-N

>  <target>  (75) 
CHIKV_Mac

>  <tags>  (75) 
['[Other] ignore', 'hits']

>  <reference>  (75) 
None

>  <exports>  (75) 
['/opt/xchem-fragalysis-2/maxwin/CHIKV_HIPPO/web_resources/hit_poses.sdf', '/opt/xchem-fragalysis-2/maxwin/CHIKV_HIPPO/web/web_resources/hit_poses.sdf', '/opt/xchem-fragalysis-2/maxwin/CHIKV_HIPPO/web2/web_resources/hit_poses.sdf']

>  <observation_longname>  (75) 
nan

>  <ConformerSites alias>  (75) 
nan

>  <CanonSites alias>  (75) 
nan

>  <CrystalformSites alias>  (75) 
nan

>  <Quatassemblies alias>  (75) 
nan

>  <Crystalforms alias>  (75) 
nan

$$$$
c0692a
     RDKit          3D

 12 12  0  0  0  0  0  0  0  0999 V2000
   16.8380   12.5290   11.8270 O   0  0  0  0  0  0  0  0  0  0  0  0
   17.6300   11.8230   11.1960 C   0  0  0  0  0  0  0  0  0  0  0  0
   19.0900   12.2170   11.1030 C   0  0  0  0  0  0  0  0  0  0  0  0
   19.8210   11.2020   10.4240 O   0  0  0  0  0  0  0  0  0  0  0  0
   21.1970   11.5380   10.2620 C   0  0  0  0  0  0  0  0  0  0  0  0
   17.2810   10.6870   10.5420 N   0  0  0  0  0  0  0  0  0  0  0  0
   16.0250   10.0390   10.5490 C   0  0  0  0  0  0  0  0  0  0  0  0
   15.2810    9.9380   11.7200 C   0  0  0  0  0  0  0  0  0  0  0  0
   14.0720    9.2600   11.7160 C   0  0  0  0  0  0  0  0  0  0  0  0
   13.5970    8.6910   10.5540 C   0  0  0  0  0  0  0  0  0  0  0  0
   14.3260    8.7980    9.3900 C   0  0  0  0  0  0  0  0  0  0  0  0
   15.5390    9.4670    9.3800 C   0  0  0  0  0  0  0  0  0  0  0  0
  5  4  1  0
  4  3  1  0
  3  2  1  0
  2  1  2  0
  6  2  1  0
  7  6  1  0
  7 12  2  0
 12 11  1  0
 11 10  2  0
 10  9  1  0
  9  8  2  0
  8  7  1  0
M  END
>  <id>  (76) 
5864

>  <inchikey>  (76) 
LEQAQBFYCMENLP-UHFFFAOYSA-N

>  <alias>  (76) 
c0692a

>  <smiles>  (76) 
COCC(=O)Nc1ccccc1

>  <path>  (76) 
/opt/xchem-fragalysis-2/maxwin/CHIKV_Mac_20240920/aligned_files/c0692a/c0692a_hippo.pdb

>  <compound>  (76) 
LEQAQBFYCMENLP-UHFFFAOYSA-N

>  <target>  (76) 
CHIKV_Mac

>  <tags>  (76) 
['hits', '[Other] Arg144 pocket', '[Other] fragment screen']

>  <reference>  (76) 
None

>  <exports>  (76) 
['/opt/xchem-fragalysis-2/maxwin/CHIKV_HIPPO/web_resources/hit_poses.sdf', '/opt/xchem-fragalysis-2/maxwin/CHIKV_HIPPO/web/web_resources/hit_poses.sdf', '/opt/xchem-fragalysis-2/maxwin/CHIKV_HIPPO/web2/web_resources/hit_poses.sdf']

>  <observation_longname>  (76) 
nan

>  <ConformerSites alias>  (76) 
nan

>  <CanonSites alias>  (76) 
nan

>  <CrystalformSites alias>  (76) 
nan

>  <Quatassemblies alias>  (76) 
nan

>  <Crystalforms alias>  (76) 
nan

$$$$
c0721a
     RDKit          3D

 15 15  0  0  0  0  0  0  0  0999 V2000
   15.2170    8.0720   12.5170 O   0  0  0  0  0  0  0  0  0  0  0  0
   15.1870    9.1860   13.0370 C   0  0  0  0  0  0  0  0  0  0  0  0
   14.9020   10.3910   12.1980 C   0  0  0  0  0  0  0  0  0  0  0  0
   14.9990   10.5100   10.8330 C   0  0  0  0  0  0  0  0  0  0  0  0
   15.5030    9.4800    9.8750 C   0  0  0  0  0  0  0  0  0  0  0  0
   14.6120   11.7360   10.3270 N   0  0  0  0  0  0  0  0  0  0  0  0
   14.2440   12.5240   11.2880 C   0  0  0  0  0  0  0  0  0  0  0  0
   14.3270   11.8720   12.8760 S   0  0  0  0  0  0  0  0  0  0  0  0
   15.4040    9.3800   14.3410 N   0  0  0  0  0  0  0  0  0  0  0  0
   16.0760    8.3890   15.1560 C   0  0  0  0  0  0  0  0  0  0  0  0
   15.0990    7.3360   15.6750 C   0  0  0  0  0  0  0  0  0  0  0  0
   13.9390    7.3340   15.2910 O   0  0  0  0  0  0  0  0  0  0  0  0
   15.5570    6.4190   16.5470 N   0  0  0  0  0  0  0  0  0  0  0  0
   15.1150    5.0300   16.5020 C   0  0  0  0  0  0  0  0  0  0  0  0
   16.5290    6.7230   17.5960 C   0  0  0  0  0  0  0  0  0  0  0  0
 15 13  1  0
 14 13  1  0
 13 11  1  0
 12 11  2  0
 11 10  1  0
 10  9  1  0
  9  2  1  0
  2  1  2  0
  3  2  1  0
  3  8  1  0
  8  7  1  0
  7  6  2  0
  6  4  1  0
  4  3  2  0
  5  4  1  0
M  END
>  <id>  (77) 
5865

>  <inchikey>  (77) 
VISCEWOYYMVEGD-UHFFFAOYSA-N

>  <alias>  (77) 
c0721a

>  <smiles>  (77) 
Cc1ncsc1C(=O)NCC(=O)N(C)C

>  <path>  (77) 
/opt/xchem-fragalysis-2/maxwin/CHIKV_Mac_20240920/aligned_files/c0721a/c0721a.pdb

>  <compound>  (77) 
VISCEWOYYMVEGD-UHFFFAOYSA-N

>  <target>  (77) 
CHIKV_Mac

>  <tags>  (77) 
['[Other] Adenine site', 'hits', '[Other] fragment screen']

>  <reference>  (77) 
None

>  <exports>  (77) 
['/opt/xchem-fragalysis-2/maxwin/CHIKV_HIPPO/web_resources/hit_poses.sdf', '/opt/xchem-fragalysis-2/maxwin/CHIKV_HIPPO/web/web_resources/hit_poses.sdf', '/opt/xchem-fragalysis-2/maxwin/CHIKV_HIPPO/web2/web_resources/hit_poses.sdf']

>  <observation_longname>  (77) 
nan

>  <ConformerSites alias>  (77) 
nan

>  <CanonSites alias>  (77) 
nan

>  <CrystalformSites alias>  (77) 
nan

>  <Quatassemblies alias>  (77) 
nan

>  <Crystalforms alias>  (77) 
nan

$$$$
c0732a
     RDKit          3D

 10 10  0  0  0  0  0  0  0  0999 V2000
   14.9230    0.7810   15.9570 O   0  0  0  0  0  0  0  0  0  0  0  0
   16.1400    0.8680   16.1340 C   0  0  0  0  0  0  0  0  0  0  0  0
   16.8870    1.8730   15.6520 N   0  0  0  0  0  0  0  0  0  0  0  0
   18.3320    2.0280   15.8180 C   0  0  0  0  0  0  0  0  0  0  0  0
   16.2510    2.9370   14.8780 C   0  0  0  0  0  0  0  0  0  0  0  0
   16.7840   -0.2330   16.9300 C   0  0  0  0  0  0  0  0  0  0  0  0
   17.9970   -0.8730   16.7060 C   0  0  0  0  0  0  0  0  0  0  0  0
   18.1080   -1.8390   17.6190 N   0  0  0  0  0  0  0  0  0  0  0  0
   17.0440   -1.8830   18.4510 N   0  0  0  0  0  0  0  0  0  0  0  0
   16.2400   -0.9090   18.0420 C   0  0  0  0  0  0  0  0  0  0  0  0
  5  3  1  0
  4  3  1  0
  3  2  1  0
  2  1  2  0
  6  2  1  0
  6 10  1  0
 10  9  2  0
  9  8  1  0
  8  7  1  0
  7  6  2  0
M  END
>  <id>  (78) 
5866

>  <inchikey>  (78) 
XHOFWFVNVHZGMB-UHFFFAOYSA-N

>  <alias>  (78) 
c0732a

>  <smiles>  (78) 
CN(C)C(=O)c1cn[nH]c1

>  <path>  (78) 
/opt/xchem-fragalysis-2/maxwin/CHIKV_Mac_20240920/aligned_files/c0732a/c0732a.pdb

>  <compound>  (78) 
XHOFWFVNVHZGMB-UHFFFAOYSA-N

>  <target>  (78) 
CHIKV_Mac

>  <tags>  (78) 
['hits', '[Other] Trp148 site', '[Other] fragment screen']

>  <reference>  (78) 
None

>  <exports>  (78) 
['/opt/xchem-fragalysis-2/maxwin/CHIKV_HIPPO/web_resources/hit_poses.sdf', '/opt/xchem-fragalysis-2/maxwin/CHIKV_HIPPO/web/web_resources/hit_poses.sdf', '/opt/xchem-fragalysis-2/maxwin/CHIKV_HIPPO/web2/web_resources/hit_poses.sdf']

>  <observation_longname>  (78) 
nan

>  <ConformerSites alias>  (78) 
nan

>  <CanonSites alias>  (78) 
nan

>  <CrystalformSites alias>  (78) 
nan

>  <Quatassemblies alias>  (78) 
nan

>  <Crystalforms alias>  (78) 
nan

$$$$
c0756c
     RDKit          3D

 12 13  0  0  0  0  0  0  0  0999 V2000
   -1.9090   19.5500   16.4420 C   0  0  0  0  0  0  0  0  0  0  0  0
   -1.3720   19.7210   17.8370 C   0  0  0  0  0  0  0  0  0  0  0  0
   -1.7430   19.0530   19.0120 C   0  0  0  0  0  0  0  0  0  0  0  0
   -0.9460   19.5410   19.9900 N   0  0  0  0  0  0  0  0  0  0  0  0
   -0.0900   20.4990   19.5370 N   0  0  0  0  0  0  0  0  0  0  0  0
   -0.3580   20.6040   18.2380 C   0  0  0  0  0  0  0  0  0  0  0  0
   -2.7930   18.0550   19.3010 C   0  0  0  0  0  0  0  0  0  0  0  0
   -3.0890   17.0460   18.3950 C   0  0  0  0  0  0  0  0  0  0  0  0
   -4.0710   16.1250   18.7190 C   0  0  0  0  0  0  0  0  0  0  0  0
   -4.7590   16.1430   19.8660 N   0  0  0  0  0  0  0  0  0  0  0  0
   -4.4680   17.1250   20.7290 C   0  0  0  0  0  0  0  0  0  0  0  0
   -3.5070   18.0930   20.4960 C   0  0  0  0  0  0  0  0  0  0  0  0
  2  1  1  0
  2  6  1  0
  6  5  2  0
  5  4  1  0
  4  3  1  0
  3  2  2  0
  7  3  1  0
  7 12  2  0
 12 11  1  0
 11 10  2  0
 10  9  1  0
  9  8  2  0
  8  7  1  0
M  END
>  <id>  (79) 
5867

>  <inchikey>  (79) 
DIJNPLGAABOOQW-UHFFFAOYSA-N

>  <alias>  (79) 
c0756c

>  <smiles>  (79) 
Cc1cn[nH]c1-c1ccncc1

>  <path>  (79) 
/opt/xchem-fragalysis-2/maxwin/CHIKV_Mac_20240920/aligned_files/c0756c/c0756c_hippo.pdb

>  <compound>  (79) 
DIJNPLGAABOOQW-UHFFFAOYSA-N

>  <target>  (79) 
CHIKV_Mac

>  <tags>  (79) 
['[Other] ignore', 'hits']

>  <reference>  (79) 
None

>  <exports>  (79) 
['/opt/xchem-fragalysis-2/maxwin/CHIKV_HIPPO/web_resources/hit_poses.sdf', '/opt/xchem-fragalysis-2/maxwin/CHIKV_HIPPO/web/web_resources/hit_poses.sdf', '/opt/xchem-fragalysis-2/maxwin/CHIKV_HIPPO/web2/web_resources/hit_poses.sdf']

>  <observation_longname>  (79) 
nan

>  <ConformerSites alias>  (79) 
nan

>  <CanonSites alias>  (79) 
nan

>  <CrystalformSites alias>  (79) 
nan

>  <Quatassemblies alias>  (79) 
nan

>  <Crystalforms alias>  (79) 
nan

$$$$
c0756a
     RDKit          3D

 12 13  0  0  0  0  0  0  0  0999 V2000
   14.8710    7.2260   11.4280 C   0  0  0  0  0  0  0  0  0  0  0  0
   14.8720    7.8920   12.7780 C   0  0  0  0  0  0  0  0  0  0  0  0
   14.8460    9.2540   13.0720 C   0  0  0  0  0  0  0  0  0  0  0  0
   14.8630    9.3520   14.4200 N   0  0  0  0  0  0  0  0  0  0  0  0
   14.8950    8.1340   15.0340 N   0  0  0  0  0  0  0  0  0  0  0  0
   14.9010    7.2590   14.0330 C   0  0  0  0  0  0  0  0  0  0  0  0
   14.7760   10.4450   12.2060 C   0  0  0  0  0  0  0  0  0  0  0  0
   14.8590   10.3260   10.8290 C   0  0  0  0  0  0  0  0  0  0  0  0
   14.7040   11.4540   10.0570 C   0  0  0  0  0  0  0  0  0  0  0  0
   14.4820   12.6700   10.5600 N   0  0  0  0  0  0  0  0  0  0  0  0
   14.4220   12.7740   11.8880 C   0  0  0  0  0  0  0  0  0  0  0  0
   14.5630   11.7020   12.7430 C   0  0  0  0  0  0  0  0  0  0  0  0
  2  1  1  0
  2  6  1  0
  6  5  2  0
  5  4  1  0
  4  3  1  0
  3  2  2  0
  7  3  1  0
  7 12  2  0
 12 11  1  0
 11 10  2  0
 10  9  1  0
  9  8  2  0
  8  7  1  0
M  END
>  <id>  (80) 
5868

>  <inchikey>  (80) 
DIJNPLGAABOOQW-UHFFFAOYSA-N

>  <alias>  (80) 
c0756a

>  <smiles>  (80) 
Cc1cn[nH]c1-c1ccncc1

>  <path>  (80) 
/opt/xchem-fragalysis-2/maxwin/CHIKV_Mac_20240920/aligned_files/c0756a/c0756a_hippo.pdb

>  <compound>  (80) 
DIJNPLGAABOOQW-UHFFFAOYSA-N

>  <target>  (80) 
CHIKV_Mac

>  <tags>  (80) 
['[Other] Adenine site', 'hits', '[Other] fragment screen']

>  <reference>  (80) 
None

>  <exports>  (80) 
['/opt/xchem-fragalysis-2/maxwin/CHIKV_HIPPO/web_resources/hit_poses.sdf', '/opt/xchem-fragalysis-2/maxwin/CHIKV_HIPPO/web/web_resources/hit_poses.sdf', '/opt/xchem-fragalysis-2/maxwin/CHIKV_HIPPO/web2/web_resources/hit_poses.sdf']

>  <observation_longname>  (80) 
nan

>  <ConformerSites alias>  (80) 
nan

>  <CanonSites alias>  (80) 
nan

>  <CrystalformSites alias>  (80) 
nan

>  <Quatassemblies alias>  (80) 
nan

>  <Crystalforms alias>  (80) 
nan

$$$$
c0756b
     RDKit          3D

 12 13  0  0  0  0  0  0  0  0999 V2000
   14.2000   12.8180   12.8460 C   0  0  0  0  0  0  0  0  0  0  0  0
   14.6090   11.7790   11.8580 C   0  0  0  0  0  0  0  0  0  0  0  0
   15.0170   10.4660   12.0870 C   0  0  0  0  0  0  0  0  0  0  0  0
   15.3440    9.9530   10.8780 N   0  0  0  0  0  0  0  0  0  0  0  0
   15.1550   10.8480    9.8620 N   0  0  0  0  0  0  0  0  0  0  0  0
   14.7060   11.9460   10.4700 C   0  0  0  0  0  0  0  0  0  0  0  0
   15.0700    9.6580   13.3230 C   0  0  0  0  0  0  0  0  0  0  0  0
   15.0340    8.2720   13.2710 C   0  0  0  0  0  0  0  0  0  0  0  0
   15.0530    7.5640   14.4540 C   0  0  0  0  0  0  0  0  0  0  0  0
   15.0900    8.1350   15.6620 N   0  0  0  0  0  0  0  0  0  0  0  0
   15.1270    9.4690   15.6980 C   0  0  0  0  0  0  0  0  0  0  0  0
   15.1260   10.2650   14.5700 C   0  0  0  0  0  0  0  0  0  0  0  0
  2  1  1  0
  2  6  1  0
  6  5  2  0
  5  4  1  0
  4  3  1  0
  3  2  2  0
  7  3  1  0
  7 12  2  0
 12 11  1  0
 11 10  2  0
 10  9  1  0
  9  8  2  0
  8  7  1  0
M  END
>  <id>  (81) 
5869

>  <inchikey>  (81) 
DIJNPLGAABOOQW-UHFFFAOYSA-N

>  <alias>  (81) 
c0756b

>  <smiles>  (81) 
Cc1cn[nH]c1-c1ccncc1

>  <path>  (81) 
/opt/xchem-fragalysis-2/maxwin/CHIKV_Mac_20240920/aligned_files/c0756b/c0756b_hippo.pdb

>  <compound>  (81) 
DIJNPLGAABOOQW-UHFFFAOYSA-N

>  <target>  (81) 
CHIKV_Mac

>  <tags>  (81) 
['[Other] Adenine site', 'hits', '[Other] fragment screen']

>  <reference>  (81) 
None

>  <exports>  (81) 
['/opt/xchem-fragalysis-2/maxwin/CHIKV_HIPPO/web_resources/hit_poses.sdf', '/opt/xchem-fragalysis-2/maxwin/CHIKV_HIPPO/web/web_resources/hit_poses.sdf', '/opt/xchem-fragalysis-2/maxwin/CHIKV_HIPPO/web2/web_resources/hit_poses.sdf']

>  <observation_longname>  (81) 
nan

>  <ConformerSites alias>  (81) 
nan

>  <CanonSites alias>  (81) 
nan

>  <CrystalformSites alias>  (81) 
nan

>  <Quatassemblies alias>  (81) 
nan

>  <Crystalforms alias>  (81) 
nan

$$$$
c0756d
     RDKit          3D

 12 13  0  0  0  0  0  0  0  0999 V2000
   14.7940   12.4780   11.0080 C   0  0  0  0  0  0  0  0  0  0  0  0
   14.6760   11.6590   12.2510 C   0  0  0  0  0  0  0  0  0  0  0  0
   14.7150   10.2780   12.3920 C   0  0  0  0  0  0  0  0  0  0  0  0
   14.5820   10.0280   13.7120 N   0  0  0  0  0  0  0  0  0  0  0  0
   14.4440   11.1580   14.4420 N   0  0  0  0  0  0  0  0  0  0  0  0
   14.5020   12.1420   13.5540 C   0  0  0  0  0  0  0  0  0  0  0  0
   14.7990    9.1810   11.4150 C   0  0  0  0  0  0  0  0  0  0  0  0
   14.6510    9.4220   10.0610 C   0  0  0  0  0  0  0  0  0  0  0  0
   14.5970    8.3490    9.2000 C   0  0  0  0  0  0  0  0  0  0  0  0
   14.6900    7.0780    9.5960 N   0  0  0  0  0  0  0  0  0  0  0  0
   14.8610    6.8620   10.9010 C   0  0  0  0  0  0  0  0  0  0  0  0
   14.9230    7.8680   11.8390 C   0  0  0  0  0  0  0  0  0  0  0  0
  2  1  1  0
  2  6  1  0
  6  5  2  0
  5  4  1  0
  4  3  1  0
  3  2  2  0
  7  3  1  0
  7 12  2  0
 12 11  1  0
 11 10  2  0
 10  9  1  0
  9  8  2  0
  8  7  1  0
M  END
>  <id>  (82) 
5870

>  <inchikey>  (82) 
DIJNPLGAABOOQW-UHFFFAOYSA-N

>  <alias>  (82) 
c0756d

>  <smiles>  (82) 
Cc1cn[nH]c1-c1ccncc1

>  <path>  (82) 
/opt/xchem-fragalysis-2/maxwin/CHIKV_Mac_20240920/aligned_files/c0756d/c0756d_hippo.pdb

>  <compound>  (82) 
DIJNPLGAABOOQW-UHFFFAOYSA-N

>  <target>  (82) 
CHIKV_Mac

>  <tags>  (82) 
['[Other] Adenine site', 'hits', '[Other] fragment screen']

>  <reference>  (82) 
None

>  <exports>  (82) 
['/opt/xchem-fragalysis-2/maxwin/CHIKV_HIPPO/web_resources/hit_poses.sdf', '/opt/xchem-fragalysis-2/maxwin/CHIKV_HIPPO/web/web_resources/hit_poses.sdf', '/opt/xchem-fragalysis-2/maxwin/CHIKV_HIPPO/web2/web_resources/hit_poses.sdf']

>  <observation_longname>  (82) 
nan

>  <ConformerSites alias>  (82) 
nan

>  <CanonSites alias>  (82) 
nan

>  <CrystalformSites alias>  (82) 
nan

>  <Quatassemblies alias>  (82) 
nan

>  <Crystalforms alias>  (82) 
nan

$$$$
c0760a
     RDKit          3D

 13 14  0  0  0  0  0  0  0  0999 V2000
   14.4930    0.5480   15.9090 O   0  0  0  0  0  0  0  0  0  0  0  0
   15.6910    0.8050   15.8490 C   0  0  0  0  0  0  0  0  0  0  0  0
   16.3640    1.8550   15.0060 C   0  0  0  0  0  0  0  0  0  0  0  0
   17.7880    1.5740   15.3480 C   0  0  0  0  0  0  0  0  0  0  0  0
   18.9440    2.2770   14.7180 C   0  0  0  0  0  0  0  0  0  0  0  0
   16.6910    0.1640   16.5590 N   0  0  0  0  0  0  0  0  0  0  0  0
   17.9520    0.6540   16.2180 N   0  0  0  0  0  0  0  0  0  0  0  0
   16.5840   -0.9030   17.5010 C   0  0  0  0  0  0  0  0  0  0  0  0
   17.5460   -1.9010   17.5330 C   0  0  0  0  0  0  0  0  0  0  0  0
   17.4150   -2.9530   18.4240 C   0  0  0  0  0  0  0  0  0  0  0  0
   16.3360   -3.0140   19.2800 C   0  0  0  0  0  0  0  0  0  0  0  0
   15.3840   -2.0200   19.2550 C   0  0  0  0  0  0  0  0  0  0  0  0
   15.4980   -0.9610   18.3690 C   0  0  0  0  0  0  0  0  0  0  0  0
  5  4  1  0
  4  7  2  0
  7  6  1  0
  6  2  1  0
  2  1  2  0
  3  2  1  0
  4  3  1  0
  8  6  1  0
  8 13  2  0
 13 12  1  0
 12 11  2  0
 11 10  1  0
 10  9  2  0
  9  8  1  0
M  END
>  <id>  (83) 
5871

>  <inchikey>  (83) 
QELUYTUMUWHWMC-UHFFFAOYSA-N

>  <alias>  (83) 
c0760a

>  <smiles>  (83) 
CC1=NN(c2ccccc2)C(=O)C1

>  <path>  (83) 
/opt/xchem-fragalysis-2/maxwin/CHIKV_Mac_20240920/aligned_files/c0760a/c0760a_hippo.pdb

>  <compound>  (83) 
QELUYTUMUWHWMC-UHFFFAOYSA-N

>  <target>  (83) 
CHIKV_Mac

>  <tags>  (83) 
['hits', '[Other] Trp148 site', '[Other] fragment screen']

>  <reference>  (83) 
None

>  <exports>  (83) 
['/opt/xchem-fragalysis-2/maxwin/CHIKV_HIPPO/web_resources/hit_poses.sdf', '/opt/xchem-fragalysis-2/maxwin/CHIKV_HIPPO/web/web_resources/hit_poses.sdf', '/opt/xchem-fragalysis-2/maxwin/CHIKV_HIPPO/web2/web_resources/hit_poses.sdf']

>  <observation_longname>  (83) 
nan

>  <ConformerSites alias>  (83) 
nan

>  <CanonSites alias>  (83) 
nan

>  <CrystalformSites alias>  (83) 
nan

>  <Quatassemblies alias>  (83) 
nan

>  <Crystalforms alias>  (83) 
nan

$$$$
c0760b
     RDKit          3D

 13 14  0  0  0  0  0  0  0  0999 V2000
   14.5400    0.6960   15.9610 O   0  0  0  0  0  0  0  0  0  0  0  0
   15.7460    0.9210   15.9190 C   0  0  0  0  0  0  0  0  0  0  0  0
   16.4670    1.9300   15.0630 C   0  0  0  0  0  0  0  0  0  0  0  0
   17.8780    1.5630   15.3950 C   0  0  0  0  0  0  0  0  0  0  0  0
   19.0710    2.1460   14.7110 C   0  0  0  0  0  0  0  0  0  0  0  0
   16.7120    0.2450   16.6380 N   0  0  0  0  0  0  0  0  0  0  0  0
   17.9920    0.6570   16.2870 N   0  0  0  0  0  0  0  0  0  0  0  0
   16.5460   -0.8120   17.5880 C   0  0  0  0  0  0  0  0  0  0  0  0
   15.4180   -0.8430   18.4130 C   0  0  0  0  0  0  0  0  0  0  0  0
   15.2400   -1.9010   19.2930 C   0  0  0  0  0  0  0  0  0  0  0  0
   16.1700   -2.9210   19.3560 C   0  0  0  0  0  0  0  0  0  0  0  0
   17.2780   -2.8950   18.5360 C   0  0  0  0  0  0  0  0  0  0  0  0
   17.4770   -1.8430   17.6520 C   0  0  0  0  0  0  0  0  0  0  0  0
  5  4  1  0
  4  7  2  0
  7  6  1  0
  6  2  1  0
  2  1  2  0
  3  2  1  0
  4  3  1  0
  8  6  1  0
  8 13  2  0
 13 12  1  0
 12 11  2  0
 11 10  1  0
 10  9  2  0
  9  8  1  0
M  END
>  <id>  (84) 
5872

>  <inchikey>  (84) 
QELUYTUMUWHWMC-UHFFFAOYSA-N

>  <alias>  (84) 
c0760b

>  <smiles>  (84) 
CC1=NN(c2ccccc2)C(=O)C1

>  <path>  (84) 
/opt/xchem-fragalysis-2/maxwin/CHIKV_Mac_20240920/aligned_files/c0760b/c0760b_hippo.pdb

>  <compound>  (84) 
QELUYTUMUWHWMC-UHFFFAOYSA-N

>  <target>  (84) 
CHIKV_Mac

>  <tags>  (84) 
['hits', '[Other] Trp148 site', '[Other] fragment screen']

>  <reference>  (84) 
None

>  <exports>  (84) 
['/opt/xchem-fragalysis-2/maxwin/CHIKV_HIPPO/web_resources/hit_poses.sdf', '/opt/xchem-fragalysis-2/maxwin/CHIKV_HIPPO/web/web_resources/hit_poses.sdf', '/opt/xchem-fragalysis-2/maxwin/CHIKV_HIPPO/web2/web_resources/hit_poses.sdf']

>  <observation_longname>  (84) 
nan

>  <ConformerSites alias>  (84) 
nan

>  <CanonSites alias>  (84) 
nan

>  <CrystalformSites alias>  (84) 
nan

>  <Quatassemblies alias>  (84) 
nan

>  <Crystalforms alias>  (84) 
nan

$$$$
c0760c
     RDKit          3D

 13 14  0  0  0  0  0  0  0  0999 V2000
   14.6250    0.6660   15.8310 O   0  0  0  0  0  0  0  0  0  0  0  0
   15.8330    0.9010   15.7640 C   0  0  0  0  0  0  0  0  0  0  0  0
   16.5230    1.9790   14.9680 C   0  0  0  0  0  0  0  0  0  0  0  0
   17.9500    1.6730   15.3050 C   0  0  0  0  0  0  0  0  0  0  0  0
   19.1160    2.4130   14.7440 C   0  0  0  0  0  0  0  0  0  0  0  0
   16.8400    0.2050   16.4170 N   0  0  0  0  0  0  0  0  0  0  0  0
   18.1020    0.6960   16.1100 N   0  0  0  0  0  0  0  0  0  0  0  0
   16.7400   -0.9060   17.3100 C   0  0  0  0  0  0  0  0  0  0  0  0
   17.7250   -1.8800   17.3220 C   0  0  0  0  0  0  0  0  0  0  0  0
   17.6170   -2.9460   18.2020 C   0  0  0  0  0  0  0  0  0  0  0  0
   16.5530   -3.0290   19.0660 C   0  0  0  0  0  0  0  0  0  0  0  0
   15.5840   -2.0620   19.0540 C   0  0  0  0  0  0  0  0  0  0  0  0
   15.6610   -1.0020   18.1740 C   0  0  0  0  0  0  0  0  0  0  0  0
  5  4  1  0
  4  7  2  0
  7  6  1  0
  6  2  1  0
  2  1  2  0
  3  2  1  0
  4  3  1  0
  8  6  1  0
  8 13  2  0
 13 12  1  0
 12 11  2  0
 11 10  1  0
 10  9  2  0
  9  8  1  0
M  END
>  <id>  (85) 
5873

>  <inchikey>  (85) 
QELUYTUMUWHWMC-UHFFFAOYSA-N

>  <alias>  (85) 
c0760c

>  <smiles>  (85) 
CC1=NN(c2ccccc2)C(=O)C1

>  <path>  (85) 
/opt/xchem-fragalysis-2/maxwin/CHIKV_Mac_20240920/aligned_files/c0760c/c0760c_hippo.pdb

>  <compound>  (85) 
QELUYTUMUWHWMC-UHFFFAOYSA-N

>  <target>  (85) 
CHIKV_Mac

>  <tags>  (85) 
['hits', '[Other] Trp148 site', '[Other] fragment screen']

>  <reference>  (85) 
None

>  <exports>  (85) 
['/opt/xchem-fragalysis-2/maxwin/CHIKV_HIPPO/web_resources/hit_poses.sdf', '/opt/xchem-fragalysis-2/maxwin/CHIKV_HIPPO/web/web_resources/hit_poses.sdf', '/opt/xchem-fragalysis-2/maxwin/CHIKV_HIPPO/web2/web_resources/hit_poses.sdf']

>  <observation_longname>  (85) 
CHIKV_MacB-x0760_C_308_1_CHIKV_MacB-x2352+C+401+1

>  <ConformerSites alias>  (85) 
1a - c2352/C/401

>  <CanonSites alias>  (85) 
1 - c2352/C/401/1

>  <CrystalformSites alias>  (85) 
F1a - c0270/A/304

>  <Quatassemblies alias>  (85) 
A1 - monomer

>  <Crystalforms alias>  (85) 
F1 - P31-4fold-NCS

$$$$
c0760d
     RDKit          3D

 13 14  0  0  0  0  0  0  0  0999 V2000
   14.6520    0.8090   15.8990 O   0  0  0  0  0  0  0  0  0  0  0  0
   15.8530    1.0330   15.8520 C   0  0  0  0  0  0  0  0  0  0  0  0
   16.5630    2.0760   15.0310 C   0  0  0  0  0  0  0  0  0  0  0  0
   17.9810    1.7530   15.3870 C   0  0  0  0  0  0  0  0  0  0  0  0
   19.1650    2.4030   14.7500 C   0  0  0  0  0  0  0  0  0  0  0  0
   16.8210    0.3450   16.5490 N   0  0  0  0  0  0  0  0  0  0  0  0
   18.1060    0.8160   16.2460 N   0  0  0  0  0  0  0  0  0  0  0  0
   16.6700   -0.7560   17.4430 C   0  0  0  0  0  0  0  0  0  0  0  0
   15.5300   -0.8630   18.2430 C   0  0  0  0  0  0  0  0  0  0  0  0
   15.3990   -1.9410   19.1020 C   0  0  0  0  0  0  0  0  0  0  0  0
   16.3830   -2.9120   19.1610 C   0  0  0  0  0  0  0  0  0  0  0  0
   17.5070   -2.8070   18.3640 C   0  0  0  0  0  0  0  0  0  0  0  0
   17.6580   -1.7280   17.5030 C   0  0  0  0  0  0  0  0  0  0  0  0
  5  4  1  0
  4  7  2  0
  7  6  1  0
  6  2  1  0
  2  1  2  0
  3  2  1  0
  4  3  1  0
  8  6  1  0
  8 13  2  0
 13 12  1  0
 12 11  2  0
 11 10  1  0
 10  9  2  0
  9  8  1  0
M  END
>  <id>  (86) 
5874

>  <inchikey>  (86) 
QELUYTUMUWHWMC-UHFFFAOYSA-N

>  <alias>  (86) 
c0760d

>  <smiles>  (86) 
CC1=NN(c2ccccc2)C(=O)C1

>  <path>  (86) 
/opt/xchem-fragalysis-2/maxwin/CHIKV_Mac_20240920/aligned_files/c0760d/c0760d_hippo.pdb

>  <compound>  (86) 
QELUYTUMUWHWMC-UHFFFAOYSA-N

>  <target>  (86) 
CHIKV_Mac

>  <tags>  (86) 
['hits', '[Other] Trp148 site', '[Other] fragment screen']

>  <reference>  (86) 
None

>  <exports>  (86) 
['/opt/xchem-fragalysis-2/maxwin/CHIKV_HIPPO/web_resources/hit_poses.sdf', '/opt/xchem-fragalysis-2/maxwin/CHIKV_HIPPO/web/web_resources/hit_poses.sdf', '/opt/xchem-fragalysis-2/maxwin/CHIKV_HIPPO/web2/web_resources/hit_poses.sdf']

>  <observation_longname>  (86) 
nan

>  <ConformerSites alias>  (86) 
nan

>  <CanonSites alias>  (86) 
nan

>  <CrystalformSites alias>  (86) 
nan

>  <Quatassemblies alias>  (86) 
nan

>  <Crystalforms alias>  (86) 
nan

$$$$
c0822a
     RDKit          3D

 10 10  0  0  0  0  0  0  0  0999 V2000
   16.7250    3.9420   16.3820 O   0  0  0  0  0  0  0  0  0  0  0  0
   15.6820    3.2550   15.6820 C   0  0  1  0  0  0  0  0  0  0  0  0
   14.9340    4.2150   14.7850 C   0  0  0  0  0  0  0  0  0  0  0  0
   16.2850    2.1200   14.8820 C   0  0  0  0  0  0  0  0  0  0  0  0
   17.0160    1.1800   15.7330 N   0  0  0  0  0  0  0  0  0  0  0  0
   18.3720    1.0710   15.8910 C   0  0  0  0  0  0  0  0  0  0  0  0
   19.3460    1.9570   15.2070 C   0  0  0  0  0  0  0  0  0  0  0  0
   18.6780    0.1000   16.7350 N   0  0  0  0  0  0  0  0  0  0  0  0
   17.4660   -0.4300   17.1380 C   0  0  0  0  0  0  0  0  0  0  0  0
   16.4390    0.2190   16.5360 C   0  0  0  0  0  0  0  0  0  0  0  0
  2  3  1  6
  2  1  1  0
  4  2  1  0
  5  4  1  0
  5 10  1  0
 10  9  2  0
  9  8  1  0
  8  6  2  0
  6  5  1  0
  7  6  1  0
M  END
>  <id>  (87) 
5875

>  <inchikey>  (87) 
VUFBCWUJICCKDU-LURJTMIESA-N

>  <alias>  (87) 
c0822a

>  <smiles>  (87) 
Cc1nccn1C[C@H](C)O

>  <path>  (87) 
/opt/xchem-fragalysis-2/maxwin/CHIKV_Mac_20240920/aligned_files/c0822a/c0822a.pdb

>  <compound>  (87) 
VUFBCWUJICCKDU-UHFFFAOYSA-N

>  <target>  (87) 
CHIKV_Mac

>  <tags>  (87) 
['hits', '[Other] Trp148 site', '[Other] fragment screen']

>  <reference>  (87) 
None

>  <exports>  (87) 
['/opt/xchem-fragalysis-2/maxwin/CHIKV_HIPPO/web_resources/hit_poses.sdf', '/opt/xchem-fragalysis-2/maxwin/CHIKV_HIPPO/web/web_resources/hit_poses.sdf', '/opt/xchem-fragalysis-2/maxwin/CHIKV_HIPPO/web2/web_resources/hit_poses.sdf']

>  <observation_longname>  (87) 
nan

>  <ConformerSites alias>  (87) 
nan

>  <CanonSites alias>  (87) 
nan

>  <CrystalformSites alias>  (87) 
nan

>  <Quatassemblies alias>  (87) 
nan

>  <Crystalforms alias>  (87) 
nan

$$$$
c0824a
     RDKit          3D

 18 19  0  0  0  0  0  0  0  0999 V2000
   18.1760    1.0220   16.0760 O   0  0  0  0  0  0  0  0  0  0  0  0
   17.0050    0.7650   16.3500 C   0  0  0  0  0  0  0  0  0  0  0  0
   16.6610   -0.3170   17.3380 C   0  0  0  0  0  0  0  0  0  0  0  0
   17.3960   -1.5050   17.2980 C   0  0  0  0  0  0  0  0  0  0  0  0
   17.1560   -2.5220   18.2080 C   0  0  0  0  0  0  0  0  0  0  0  0
   16.1790   -2.3810   19.1650 C   0  0  0  0  0  0  0  0  0  0  0  0
   15.4220   -1.2230   19.2250 C   0  0  0  0  0  0  0  0  0  0  0  0
   15.6730   -0.2240   18.3120 C   0  0  0  0  0  0  0  0  0  0  0  0
   14.8920    0.8830   18.3510 F   0  0  0  0  0  0  0  0  0  0  0  0
   15.9900    1.4290   15.7910 N   0  0  0  0  0  0  0  0  0  0  0  0
   16.1820    2.3860   14.7080 C   0  0  0  0  0  0  0  0  0  0  0  0
   16.7640    3.7100   15.2010 C   0  0  0  0  0  0  0  0  0  0  0  0
   15.8910    4.4240   16.2070 C   0  0  0  0  0  0  0  0  0  0  0  0
   15.1360    5.5270   15.8450 C   0  0  0  0  0  0  0  0  0  0  0  0
   14.3550    6.1530   16.7980 C   0  0  0  0  0  0  0  0  0  0  0  0
   14.2760    5.7500   18.0720 N   0  0  0  0  0  0  0  0  0  0  0  0
   15.0070    4.6830   18.4100 C   0  0  0  0  0  0  0  0  0  0  0  0
   15.8210    4.0020   17.5240 C   0  0  0  0  0  0  0  0  0  0  0  0
  9  8  1  0
  8  7  1  0
  7  6  2  0
  6  5  1  0
  5  4  2  0
  4  3  1  0
  8  3  2  0
  3  2  1  0
  2  1  2  0
 10  2  1  0
 11 10  1  0
 12 11  1  0
 13 12  1  0
 13 18  2  0
 18 17  1  0
 17 16  2  0
 16 15  1  0
 15 14  2  0
 14 13  1  0
M  END
>  <id>  (88) 
5876

>  <inchikey>  (88) 
HQJMILNSKHZGJL-UHFFFAOYSA-N

>  <alias>  (88) 
c0824a

>  <smiles>  (88) 
O=C(NCCc1ccncc1)c1ccccc1F

>  <path>  (88) 
/opt/xchem-fragalysis-2/maxwin/CHIKV_Mac_20240920/aligned_files/c0824a/c0824a.pdb

>  <compound>  (88) 
HQJMILNSKHZGJL-UHFFFAOYSA-N

>  <target>  (88) 
CHIKV_Mac

>  <tags>  (88) 
['hits', '[Other] Trp148 site', '[Other] fragment screen']

>  <reference>  (88) 
None

>  <exports>  (88) 
['/opt/xchem-fragalysis-2/maxwin/CHIKV_HIPPO/web_resources/hit_poses.sdf', '/opt/xchem-fragalysis-2/maxwin/CHIKV_HIPPO/web/web_resources/hit_poses.sdf', '/opt/xchem-fragalysis-2/maxwin/CHIKV_HIPPO/web2/web_resources/hit_poses.sdf']

>  <observation_longname>  (88) 
nan

>  <ConformerSites alias>  (88) 
nan

>  <CanonSites alias>  (88) 
nan

>  <CrystalformSites alias>  (88) 
nan

>  <Quatassemblies alias>  (88) 
nan

>  <Crystalforms alias>  (88) 
nan

$$$$
c0839a
     RDKit          3D

 12 13  0  0  0  0  0  0  0  0999 V2000
   14.9720   12.8820   15.2040 C   0  0  0  0  0  0  0  0  0  0  0  0
   14.6980   13.2320   13.8260 N   0  0  0  0  0  0  0  0  0  0  0  0
   14.6850   12.3240   12.8080 C   0  0  0  0  0  0  0  0  0  0  0  0
   14.9070   11.0550   13.1080 N   0  0  0  0  0  0  0  0  0  0  0  0
   14.8940   10.1700   12.0630 C   0  0  0  0  0  0  0  0  0  0  0  0
   14.6970   10.6100   10.7350 C   0  0  0  0  0  0  0  0  0  0  0  0
   14.4680   11.9310   10.4540 N   0  0  0  0  0  0  0  0  0  0  0  0
   14.4520   12.7540   11.4770 C   0  0  0  0  0  0  0  0  0  0  0  0
   15.0060    8.7850   12.3180 C   0  0  0  0  0  0  0  0  0  0  0  0
   14.9370    7.8890   11.2870 C   0  0  0  0  0  0  0  0  0  0  0  0
   14.7630    8.3260    9.9780 C   0  0  0  0  0  0  0  0  0  0  0  0
   14.6510    9.6580    9.6930 C   0  0  0  0  0  0  0  0  0  0  0  0
  2  1  1  0
  3  2  1  0
  3  8  2  0
  8  7  1  0
  7  6  2  0
  6 12  1  0
 12 11  2  0
 11 10  1  0
 10  9  2  0
  9  5  1  0
  6  5  1  0
  5  4  2  0
  4  3  1  0
M  END
>  <id>  (89) 
5877

>  <inchikey>  (89) 
ILHBRNLXKVETML-UHFFFAOYSA-N

>  <alias>  (89) 
c0839a

>  <smiles>  (89) 
CNc1cnc2ccccc2n1

>  <path>  (89) 
/opt/xchem-fragalysis-2/maxwin/CHIKV_Mac_20240920/aligned_files/c0839a/c0839a_hippo.pdb

>  <compound>  (89) 
ILHBRNLXKVETML-UHFFFAOYSA-N

>  <target>  (89) 
CHIKV_Mac

>  <tags>  (89) 
['[Other] Adenine site', 'hits', '[Other] fragment screen']

>  <reference>  (89) 
None

>  <exports>  (89) 
['/opt/xchem-fragalysis-2/maxwin/CHIKV_HIPPO/web_resources/hit_poses.sdf', '/opt/xchem-fragalysis-2/maxwin/CHIKV_HIPPO/web/web_resources/hit_poses.sdf', '/opt/xchem-fragalysis-2/maxwin/CHIKV_HIPPO/web2/web_resources/hit_poses.sdf']

>  <observation_longname>  (89) 
nan

>  <ConformerSites alias>  (89) 
nan

>  <CanonSites alias>  (89) 
nan

>  <CrystalformSites alias>  (89) 
nan

>  <Quatassemblies alias>  (89) 
nan

>  <Crystalforms alias>  (89) 
nan

$$$$
c0839b
     RDKit          3D

 12 13  0  0  0  0  0  0  0  0999 V2000
   15.2820   13.1020   15.3300 C   0  0  0  0  0  0  0  0  0  0  0  0
   14.9090   13.3610   13.9550 N   0  0  0  0  0  0  0  0  0  0  0  0
   14.8970   12.4000   12.9820 C   0  0  0  0  0  0  0  0  0  0  0  0
   14.9990   11.1350   13.3610 N   0  0  0  0  0  0  0  0  0  0  0  0
   14.9830   10.1960   12.3640 C   0  0  0  0  0  0  0  0  0  0  0  0
   14.8770   10.5740   11.0070 C   0  0  0  0  0  0  0  0  0  0  0  0
   14.7690   11.8910   10.6430 N   0  0  0  0  0  0  0  0  0  0  0  0
   14.7760   12.7700   11.6180 C   0  0  0  0  0  0  0  0  0  0  0  0
   15.0530    8.8220   12.6930 C   0  0  0  0  0  0  0  0  0  0  0  0
   15.0300    7.8800   11.7020 C   0  0  0  0  0  0  0  0  0  0  0  0
   14.9290    8.2540   10.3640 C   0  0  0  0  0  0  0  0  0  0  0  0
   14.8580    9.5720   10.0100 C   0  0  0  0  0  0  0  0  0  0  0  0
  2  1  1  0
  3  2  1  0
  3  8  2  0
  8  7  1  0
  7  6  2  0
  6 12  1  0
 12 11  2  0
 11 10  1  0
 10  9  2  0
  9  5  1  0
  6  5  1  0
  5  4  2  0
  4  3  1  0
M  END
>  <id>  (90) 
5878

>  <inchikey>  (90) 
ILHBRNLXKVETML-UHFFFAOYSA-N

>  <alias>  (90) 
c0839b

>  <smiles>  (90) 
CNc1cnc2ccccc2n1

>  <path>  (90) 
/opt/xchem-fragalysis-2/maxwin/CHIKV_Mac_20240920/aligned_files/c0839b/c0839b_hippo.pdb

>  <compound>  (90) 
ILHBRNLXKVETML-UHFFFAOYSA-N

>  <target>  (90) 
CHIKV_Mac

>  <tags>  (90) 
['[Other] Adenine site', 'hits', '[Other] fragment screen']

>  <reference>  (90) 
None

>  <exports>  (90) 
['/opt/xchem-fragalysis-2/maxwin/CHIKV_HIPPO/web_resources/hit_poses.sdf', '/opt/xchem-fragalysis-2/maxwin/CHIKV_HIPPO/web/web_resources/hit_poses.sdf', '/opt/xchem-fragalysis-2/maxwin/CHIKV_HIPPO/web2/web_resources/hit_poses.sdf']

>  <observation_longname>  (90) 
CHIKV_MacB-x0839_B_401_1_CHIKV_MacB-x2352+C+401+1

>  <ConformerSites alias>  (90) 
1a - c2352/C/401

>  <CanonSites alias>  (90) 
1 - c2352/C/401/1

>  <CrystalformSites alias>  (90) 
F1a - c0270/A/304

>  <Quatassemblies alias>  (90) 
A1 - monomer

>  <Crystalforms alias>  (90) 
F1 - P31-4fold-NCS

$$$$
c0839c
     RDKit          3D

 12 13  0  0  0  0  0  0  0  0999 V2000
   14.7820   13.1240   14.9370 C   0  0  0  0  0  0  0  0  0  0  0  0
   14.7880   13.4160   13.5200 N   0  0  0  0  0  0  0  0  0  0  0  0
   14.7730   12.4520   12.5490 C   0  0  0  0  0  0  0  0  0  0  0  0
   14.7880   11.1800   12.9240 N   0  0  0  0  0  0  0  0  0  0  0  0
   14.8330   10.2560   11.9130 C   0  0  0  0  0  0  0  0  0  0  0  0
   14.8540   10.6520   10.5600 C   0  0  0  0  0  0  0  0  0  0  0  0
   14.8150   11.9750   10.2080 N   0  0  0  0  0  0  0  0  0  0  0  0
   14.7720   12.8420   11.1920 C   0  0  0  0  0  0  0  0  0  0  0  0
   14.8420    8.8780   12.2270 C   0  0  0  0  0  0  0  0  0  0  0  0
   14.8670    7.9470   11.2260 C   0  0  0  0  0  0  0  0  0  0  0  0
   14.8840    8.3380    9.8950 C   0  0  0  0  0  0  0  0  0  0  0  0
   14.8880    9.6640    9.5540 C   0  0  0  0  0  0  0  0  0  0  0  0
  2  1  1  0
  3  2  1  0
  3  8  2  0
  8  7  1  0
  7  6  2  0
  6 12  1  0
 12 11  2  0
 11 10  1  0
 10  9  2  0
  9  5  1  0
  6  5  1  0
  5  4  2  0
  4  3  1  0
M  END
>  <id>  (91) 
5879

>  <inchikey>  (91) 
ILHBRNLXKVETML-UHFFFAOYSA-N

>  <alias>  (91) 
c0839c

>  <smiles>  (91) 
CNc1cnc2ccccc2n1

>  <path>  (91) 
/opt/xchem-fragalysis-2/maxwin/CHIKV_Mac_20240920/aligned_files/c0839c/c0839c_hippo.pdb

>  <compound>  (91) 
ILHBRNLXKVETML-UHFFFAOYSA-N

>  <target>  (91) 
CHIKV_Mac

>  <tags>  (91) 
['[Other] Adenine site', 'hits', '[Other] fragment screen']

>  <reference>  (91) 
None

>  <exports>  (91) 
['/opt/xchem-fragalysis-2/maxwin/CHIKV_HIPPO/web_resources/hit_poses.sdf', '/opt/xchem-fragalysis-2/maxwin/CHIKV_HIPPO/web/web_resources/hit_poses.sdf', '/opt/xchem-fragalysis-2/maxwin/CHIKV_HIPPO/web2/web_resources/hit_poses.sdf']

>  <observation_longname>  (91) 
nan

>  <ConformerSites alias>  (91) 
nan

>  <CanonSites alias>  (91) 
nan

>  <CrystalformSites alias>  (91) 
nan

>  <Quatassemblies alias>  (91) 
nan

>  <Crystalforms alias>  (91) 
nan

$$$$
c0839e
     RDKit          3D

 12 13  0  0  0  0  0  0  0  0999 V2000
   17.9920   15.3780   15.4200 C   0  0  0  0  0  0  0  0  0  0  0  0
   18.3130   15.5800   14.0250 N   0  0  0  0  0  0  0  0  0  0  0  0
   19.1200   14.7400   13.3180 C   0  0  0  0  0  0  0  0  0  0  0  0
   18.5180   13.8360   12.5620 N   0  0  0  0  0  0  0  0  0  0  0  0
   19.3340   12.9930   11.8520 C   0  0  0  0  0  0  0  0  0  0  0  0
   20.7400   13.0980   11.9330 C   0  0  0  0  0  0  0  0  0  0  0  0
   21.3350   14.0440   12.7260 N   0  0  0  0  0  0  0  0  0  0  0  0
   20.5340   14.8400   13.3970 C   0  0  0  0  0  0  0  0  0  0  0  0
   18.7650   12.0000   11.0250 C   0  0  0  0  0  0  0  0  0  0  0  0
   19.5710   11.1560   10.3130 C   0  0  0  0  0  0  0  0  0  0  0  0
   20.9580   11.2590   10.3930 C   0  0  0  0  0  0  0  0  0  0  0  0
   21.5430   12.2070   11.1840 C   0  0  0  0  0  0  0  0  0  0  0  0
  2  1  1  0
  3  2  1  0
  3  8  2  0
  8  7  1  0
  7  6  2  0
  6 12  1  0
 12 11  2  0
 11 10  1  0
 10  9  2  0
  9  5  1  0
  6  5  1  0
  5  4  2  0
  4  3  1  0
M  END
>  <id>  (92) 
5880

>  <inchikey>  (92) 
ILHBRNLXKVETML-UHFFFAOYSA-N

>  <alias>  (92) 
c0839e

>  <smiles>  (92) 
CNc1cnc2ccccc2n1

>  <path>  (92) 
/opt/xchem-fragalysis-2/maxwin/CHIKV_Mac_20240920/aligned_files/c0839e/c0839e_hippo.pdb

>  <compound>  (92) 
ILHBRNLXKVETML-UHFFFAOYSA-N

>  <target>  (92) 
CHIKV_Mac

>  <tags>  (92) 
['hits', '[Other] Arg144 pocket', '[Other] fragment screen']

>  <reference>  (92) 
None

>  <exports>  (92) 
['/opt/xchem-fragalysis-2/maxwin/CHIKV_HIPPO/web_resources/hit_poses.sdf', '/opt/xchem-fragalysis-2/maxwin/CHIKV_HIPPO/web/web_resources/hit_poses.sdf', '/opt/xchem-fragalysis-2/maxwin/CHIKV_HIPPO/web2/web_resources/hit_poses.sdf']

>  <observation_longname>  (92) 
nan

>  <ConformerSites alias>  (92) 
nan

>  <CanonSites alias>  (92) 
nan

>  <CrystalformSites alias>  (92) 
nan

>  <Quatassemblies alias>  (92) 
nan

>  <Crystalforms alias>  (92) 
nan

$$$$
c0839d
     RDKit          3D

 12 13  0  0  0  0  0  0  0  0999 V2000
   14.3740   13.4890   14.9320 C   0  0  0  0  0  0  0  0  0  0  0  0
   15.3500   13.1360   13.9260 N   0  0  0  0  0  0  0  0  0  0  0  0
   15.1040   12.2440   12.9200 C   0  0  0  0  0  0  0  0  0  0  0  0
   15.1340   10.9550   13.2200 N   0  0  0  0  0  0  0  0  0  0  0  0
   15.0390   10.0810   12.1680 C   0  0  0  0  0  0  0  0  0  0  0  0
   14.9030   10.5460   10.8400 C   0  0  0  0  0  0  0  0  0  0  0  0
   14.8330   11.8850   10.5630 N   0  0  0  0  0  0  0  0  0  0  0  0
   14.9330   12.7000   11.5890 C   0  0  0  0  0  0  0  0  0  0  0  0
   15.1360    8.6890   12.4020 C   0  0  0  0  0  0  0  0  0  0  0  0
   15.1030    7.8130   11.3550 C   0  0  0  0  0  0  0  0  0  0  0  0
   14.9720    8.2720   10.0450 C   0  0  0  0  0  0  0  0  0  0  0  0
   14.8760    9.6110    9.7810 C   0  0  0  0  0  0  0  0  0  0  0  0
  2  1  1  0
  3  2  1  0
  3  8  2  0
  8  7  1  0
  7  6  2  0
  6 12  1  0
 12 11  2  0
 11 10  1  0
 10  9  2  0
  9  5  1  0
  6  5  1  0
  5  4  2  0
  4  3  1  0
M  END
>  <id>  (93) 
5881

>  <inchikey>  (93) 
ILHBRNLXKVETML-UHFFFAOYSA-N

>  <alias>  (93) 
c0839d

>  <smiles>  (93) 
CNc1cnc2ccccc2n1

>  <path>  (93) 
/opt/xchem-fragalysis-2/maxwin/CHIKV_Mac_20240920/aligned_files/c0839d/c0839d_hippo.pdb

>  <compound>  (93) 
ILHBRNLXKVETML-UHFFFAOYSA-N

>  <target>  (93) 
CHIKV_Mac

>  <tags>  (93) 
['[Other] Adenine site', 'hits', '[Other] fragment screen']

>  <reference>  (93) 
None

>  <exports>  (93) 
['/opt/xchem-fragalysis-2/maxwin/CHIKV_HIPPO/web_resources/hit_poses.sdf', '/opt/xchem-fragalysis-2/maxwin/CHIKV_HIPPO/web/web_resources/hit_poses.sdf', '/opt/xchem-fragalysis-2/maxwin/CHIKV_HIPPO/web2/web_resources/hit_poses.sdf']

>  <observation_longname>  (93) 
nan

>  <ConformerSites alias>  (93) 
nan

>  <CanonSites alias>  (93) 
nan

>  <CrystalformSites alias>  (93) 
nan

>  <Quatassemblies alias>  (93) 
nan

>  <Crystalforms alias>  (93) 
nan

$$$$
c1091a
     RDKit          3D

 11 11  0  0  0  0  0  0  0  0999 V2000
   17.8140    3.1970   16.2500 Br  0  0  0  0  0  0  0  0  0  0  0  0
   17.1720    3.2760   14.4920 C   0  0  0  0  0  0  0  0  0  0  0  0
   17.9530    3.8030   13.5240 C   0  0  0  0  0  0  0  0  0  0  0  0
   17.4810    3.9050   12.1880 C   0  0  0  0  0  0  0  0  0  0  0  0
   18.1360    4.3550   11.2530 O   0  0  0  0  0  0  0  0  0  0  0  0
   15.8690    2.7930   14.2380 C   0  0  0  0  0  0  0  0  0  0  0  0
   15.4320    2.8960   12.9720 C   0  0  0  0  0  0  0  0  0  0  0  0
   16.1880    3.4340   11.9710 N   0  0  0  0  0  0  0  0  0  0  0  0
   15.6150    3.5380   10.6220 C   0  0  0  0  0  0  0  0  0  0  0  0
   14.6620    4.7060   10.5030 C   0  0  0  0  0  0  0  0  0  0  0  0
   13.9900    4.7120    9.2630 O   0  0  0  0  0  0  0  0  0  0  0  0
  5  4  2  0
  4  8  1  0
  9  8  1  0
 10  9  1  0
 11 10  1  0
  8  7  1  0
  7  6  2  0
  6  2  1  0
  2  1  1  0
  3  2  2  0
  4  3  1  0
M  END
>  <id>  (94) 
5882

>  <inchikey>  (94) 
GQPBXJHZWYTNFM-UHFFFAOYSA-N

>  <alias>  (94) 
c1091a

>  <smiles>  (94) 
O=c1cc(Br)ccn1CCO

>  <path>  (94) 
/opt/xchem-fragalysis-2/maxwin/CHIKV_Mac_20240920/aligned_files/c1091a/c1091a_hippo.pdb

>  <compound>  (94) 
GQPBXJHZWYTNFM-UHFFFAOYSA-N

>  <target>  (94) 
CHIKV_Mac

>  <tags>  (94) 
['[Other] Oxyanion site', 'hits', '[Other] Trp148 site', '[Other] fragment screen']

>  <reference>  (94) 
None

>  <exports>  (94) 
['/opt/xchem-fragalysis-2/maxwin/CHIKV_HIPPO/web_resources/hit_poses.sdf', '/opt/xchem-fragalysis-2/maxwin/CHIKV_HIPPO/web/web_resources/hit_poses.sdf', '/opt/xchem-fragalysis-2/maxwin/CHIKV_HIPPO/web2/web_resources/hit_poses.sdf']

>  <observation_longname>  (94) 
nan

>  <ConformerSites alias>  (94) 
nan

>  <CanonSites alias>  (94) 
nan

>  <CrystalformSites alias>  (94) 
nan

>  <Quatassemblies alias>  (94) 
nan

>  <Crystalforms alias>  (94) 
nan

$$$$
c1091b
     RDKit          3D

 11 11  0  0  0  0  0  0  0  0999 V2000
   17.9360    2.7940   15.8510 Br  0  0  0  0  0  0  0  0  0  0  0  0
   17.1420    3.3490   14.2380 C   0  0  0  0  0  0  0  0  0  0  0  0
   15.7950    3.3350   14.1220 C   0  0  0  0  0  0  0  0  0  0  0  0
   15.1660    3.6120   12.8740 C   0  0  0  0  0  0  0  0  0  0  0  0
   13.9530    3.6640   12.7050 O   0  0  0  0  0  0  0  0  0  0  0  0
   17.9860    3.6880   13.1500 C   0  0  0  0  0  0  0  0  0  0  0  0
   17.3870    3.9320   11.9700 C   0  0  0  0  0  0  0  0  0  0  0  0
   16.0270    3.8720   11.8090 N   0  0  0  0  0  0  0  0  0  0  0  0
   15.4540    3.9360   10.4550 C   0  0  0  0  0  0  0  0  0  0  0  0
   14.5220    5.1140   10.2720 C   0  0  0  0  0  0  0  0  0  0  0  0
   13.7730    4.9720    9.0760 O   0  0  0  0  0  0  0  0  0  0  0  0
  5  4  2  0
  4  8  1  0
  9  8  1  0
 10  9  1  0
 11 10  1  0
  8  7  1  0
  7  6  2  0
  6  2  1  0
  2  1  1  0
  3  2  2  0
  4  3  1  0
M  END
>  <id>  (95) 
5883

>  <inchikey>  (95) 
GQPBXJHZWYTNFM-UHFFFAOYSA-N

>  <alias>  (95) 
c1091b

>  <smiles>  (95) 
O=c1cc(Br)ccn1CCO

>  <path>  (95) 
/opt/xchem-fragalysis-2/maxwin/CHIKV_Mac_20240920/aligned_files/c1091b/c1091b_hippo.pdb

>  <compound>  (95) 
GQPBXJHZWYTNFM-UHFFFAOYSA-N

>  <target>  (95) 
CHIKV_Mac

>  <tags>  (95) 
['[Other] Oxyanion site', 'hits', '[Other] Trp148 site', '[Other] fragment screen']

>  <reference>  (95) 
None

>  <exports>  (95) 
['/opt/xchem-fragalysis-2/maxwin/CHIKV_HIPPO/web_resources/hit_poses.sdf', '/opt/xchem-fragalysis-2/maxwin/CHIKV_HIPPO/web/web_resources/hit_poses.sdf', '/opt/xchem-fragalysis-2/maxwin/CHIKV_HIPPO/web2/web_resources/hit_poses.sdf']

>  <observation_longname>  (95) 
nan

>  <ConformerSites alias>  (95) 
nan

>  <CanonSites alias>  (95) 
nan

>  <CrystalformSites alias>  (95) 
nan

>  <Quatassemblies alias>  (95) 
nan

>  <Crystalforms alias>  (95) 
nan

$$$$
c0858a
     RDKit          3D

 15 16  0  0  0  0  0  0  0  0999 V2000
   14.6560    0.5250   15.9340 O   0  0  0  0  0  0  0  0  0  0  0  0
   15.8020    0.4610   16.3680 C   0  0  0  0  0  0  0  0  0  0  0  0
   16.0820   -0.5500   17.4310 C   0  0  0  0  0  0  0  0  0  0  0  0
   17.0590   -1.4630   17.2850 N   0  0  0  0  0  0  0  0  0  0  0  0
   16.9080   -2.4880   18.5300 S   0  0  0  0  0  0  0  0  0  0  0  0
   15.6430   -1.8080   19.2800 N   0  0  0  0  0  0  0  0  0  0  0  0
   15.2740   -0.7250   18.5650 C   0  0  0  0  0  0  0  0  0  0  0  0
   16.7670    1.2910   15.9270 N   0  0  0  0  0  0  0  0  0  0  0  0
   16.4870    2.2380   14.8400 C   0  0  0  0  0  0  0  0  0  0  0  0
   18.1250    1.3450   16.5080 C   0  0  1  0  0  0  0  0  0  0  0  0
   19.1490    0.7320   15.5800 C   0  0  0  0  0  0  0  0  0  0  0  0
   18.4630    2.7770   16.8110 C   0  0  0  0  0  0  0  0  0  0  0  0
   18.3100    3.5820   15.6370 O   0  0  0  0  0  0  0  0  0  0  0  0
   16.9680    3.6380   15.1590 C   0  0  2  0  0  0  0  0  0  0  0  0
   16.0860    4.3180   16.1900 C   0  0  0  0  0  0  0  0  0  0  0  0
 14 15  1  1
 14  9  1  0
  9  8  1  0
 10  8  1  0
 10 11  1  6
 12 10  1  0
 13 12  1  0
 14 13  1  0
  8  2  1  0
  2  1  2  0
  3  2  1  0
  3  7  1  0
  7  6  2  0
  6  5  1  0
  5  4  1  0
  4  3  2  0
M  END
>  <id>  (96) 
5884

>  <inchikey>  (96) 
IKMQGCCZPWFVJE-NKWVEPMBSA-N

>  <alias>  (96) 
c0858a

>  <smiles>  (96) 
C[C@@H]1CN(C(=O)c2cnsn2)[C@@H](C)CO1

>  <path>  (96) 
/opt/xchem-fragalysis-2/maxwin/CHIKV_Mac_20240920/aligned_files/c0858a/c0858a_hippo.pdb

>  <compound>  (96) 
IKMQGCCZPWFVJE-UHFFFAOYSA-N

>  <target>  (96) 
CHIKV_Mac

>  <tags>  (96) 
['hits', '[Other] Trp148 site', '[Other] fragment screen']

>  <reference>  (96) 
None

>  <exports>  (96) 
['/opt/xchem-fragalysis-2/maxwin/CHIKV_HIPPO/web_resources/hit_poses.sdf', '/opt/xchem-fragalysis-2/maxwin/CHIKV_HIPPO/web/web_resources/hit_poses.sdf', '/opt/xchem-fragalysis-2/maxwin/CHIKV_HIPPO/web2/web_resources/hit_poses.sdf']

>  <observation_longname>  (96) 
nan

>  <ConformerSites alias>  (96) 
nan

>  <CanonSites alias>  (96) 
nan

>  <CrystalformSites alias>  (96) 
nan

>  <Quatassemblies alias>  (96) 
nan

>  <Crystalforms alias>  (96) 
nan

$$$$
c0858b
     RDKit          3D

 15 16  0  0  0  0  0  0  0  0999 V2000
   14.5450    0.8400   16.4740 O   0  0  0  0  0  0  0  0  0  0  0  0
   15.6760    0.6560   16.9110 C   0  0  0  0  0  0  0  0  0  0  0  0
   15.8720   -0.4830   17.8630 C   0  0  0  0  0  0  0  0  0  0  0  0
   16.8620   -1.3870   17.7420 N   0  0  0  0  0  0  0  0  0  0  0  0
   16.5890   -2.5130   18.8770 S   0  0  0  0  0  0  0  0  0  0  0  0
   15.2480   -1.8880   19.5350 N   0  0  0  0  0  0  0  0  0  0  0  0
   14.9570   -0.7550   18.8880 C   0  0  0  0  0  0  0  0  0  0  0  0
   16.6940    1.4710   16.5670 N   0  0  0  0  0  0  0  0  0  0  0  0
   16.4720    2.5490   15.5960 C   0  0  0  0  0  0  0  0  0  0  0  0
   18.0480    1.3900   17.1490 C   0  0  1  0  0  0  0  0  0  0  0  0
   19.0730    0.9690   16.1110 C   0  0  0  0  0  0  0  0  0  0  0  0
   18.3530    2.7460   17.7330 C   0  0  0  0  0  0  0  0  0  0  0  0
   18.2090    3.7830   16.7510 O   0  0  0  0  0  0  0  0  0  0  0  0
   16.8980    3.8930   16.1530 C   0  0  2  0  0  0  0  0  0  0  0  0
   15.9230    4.4110   17.1830 C   0  0  0  0  0  0  0  0  0  0  0  0
 14 15  1  1
 14  9  1  0
  9  8  1  0
 10  8  1  0
 10 11  1  6
 12 10  1  0
 13 12  1  0
 14 13  1  0
  8  2  1  0
  2  1  2  0
  3  2  1  0
  3  7  1  0
  7  6  2  0
  6  5  1  0
  5  4  1  0
  4  3  2  0
M  END
>  <id>  (97) 
5885

>  <inchikey>  (97) 
IKMQGCCZPWFVJE-NKWVEPMBSA-N

>  <alias>  (97) 
c0858b

>  <smiles>  (97) 
C[C@@H]1CN(C(=O)c2cnsn2)[C@@H](C)CO1

>  <path>  (97) 
/opt/xchem-fragalysis-2/maxwin/CHIKV_Mac_20240920/aligned_files/c0858b/c0858b_hippo.pdb

>  <compound>  (97) 
IKMQGCCZPWFVJE-UHFFFAOYSA-N

>  <target>  (97) 
CHIKV_Mac

>  <tags>  (97) 
['hits', '[Other] Trp148 site', '[Other] fragment screen']

>  <reference>  (97) 
None

>  <exports>  (97) 
['/opt/xchem-fragalysis-2/maxwin/CHIKV_HIPPO/web_resources/hit_poses.sdf', '/opt/xchem-fragalysis-2/maxwin/CHIKV_HIPPO/web/web_resources/hit_poses.sdf', '/opt/xchem-fragalysis-2/maxwin/CHIKV_HIPPO/web2/web_resources/hit_poses.sdf']

>  <observation_longname>  (97) 
nan

>  <ConformerSites alias>  (97) 
nan

>  <CanonSites alias>  (97) 
nan

>  <CrystalformSites alias>  (97) 
nan

>  <Quatassemblies alias>  (97) 
nan

>  <Crystalforms alias>  (97) 
nan

$$$$
c0858c
     RDKit          3D

 15 16  0  0  0  0  0  0  0  0999 V2000
   14.7480    0.5330   15.8640 O   0  0  0  0  0  0  0  0  0  0  0  0
   15.8920    0.5030   16.3230 C   0  0  0  0  0  0  0  0  0  0  0  0
   16.1760   -0.5050   17.3870 C   0  0  0  0  0  0  0  0  0  0  0  0
   17.1510   -1.4290   17.3020 N   0  0  0  0  0  0  0  0  0  0  0  0
   16.9610   -2.4040   18.5810 S   0  0  0  0  0  0  0  0  0  0  0  0
   15.6800   -1.6820   19.2580 N   0  0  0  0  0  0  0  0  0  0  0  0
   15.3450   -0.6400   18.5050 C   0  0  0  0  0  0  0  0  0  0  0  0
   16.8400    1.3640   15.9000 N   0  0  0  0  0  0  0  0  0  0  0  0
   16.5070    2.3070   14.8270 C   0  0  0  0  0  0  0  0  0  0  0  0
   18.2120    1.4460   16.4390 C   0  0  1  0  0  0  0  0  0  0  0  0
   19.2270    0.8780   15.4650 C   0  0  0  0  0  0  0  0  0  0  0  0
   18.5120    2.8850   16.7640 C   0  0  0  0  0  0  0  0  0  0  0  0
   18.2590    3.7400   15.6420 O   0  0  0  0  0  0  0  0  0  0  0  0
   16.9040    3.7240   15.1830 C   0  0  2  0  0  0  0  0  0  0  0  0
   16.0010    4.3150   16.2390 C   0  0  0  0  0  0  0  0  0  0  0  0
 14 15  1  1
 14  9  1  0
  9  8  1  0
 10  8  1  0
 10 11  1  6
 12 10  1  0
 13 12  1  0
 14 13  1  0
  8  2  1  0
  2  1  2  0
  3  2  1  0
  3  7  1  0
  7  6  2  0
  6  5  1  0
  5  4  1  0
  4  3  2  0
M  END
>  <id>  (98) 
5886

>  <inchikey>  (98) 
IKMQGCCZPWFVJE-NKWVEPMBSA-N

>  <alias>  (98) 
c0858c

>  <smiles>  (98) 
C[C@@H]1CN(C(=O)c2cnsn2)[C@@H](C)CO1

>  <path>  (98) 
/opt/xchem-fragalysis-2/maxwin/CHIKV_Mac_20240920/aligned_files/c0858c/c0858c_hippo.pdb

>  <compound>  (98) 
IKMQGCCZPWFVJE-UHFFFAOYSA-N

>  <target>  (98) 
CHIKV_Mac

>  <tags>  (98) 
['hits', '[Other] Trp148 site', '[Other] fragment screen']

>  <reference>  (98) 
None

>  <exports>  (98) 
['/opt/xchem-fragalysis-2/maxwin/CHIKV_HIPPO/web_resources/hit_poses.sdf', '/opt/xchem-fragalysis-2/maxwin/CHIKV_HIPPO/web/web_resources/hit_poses.sdf', '/opt/xchem-fragalysis-2/maxwin/CHIKV_HIPPO/web2/web_resources/hit_poses.sdf']

>  <observation_longname>  (98) 
nan

>  <ConformerSites alias>  (98) 
nan

>  <CanonSites alias>  (98) 
nan

>  <CrystalformSites alias>  (98) 
nan

>  <Quatassemblies alias>  (98) 
nan

>  <Crystalforms alias>  (98) 
nan

$$$$
c0858d
     RDKit          3D

 15 16  0  0  0  0  0  0  0  0999 V2000
   14.4290    0.9070   16.8260 O   0  0  0  0  0  0  0  0  0  0  0  0
   15.6460    0.8110   16.9030 C   0  0  0  0  0  0  0  0  0  0  0  0
   16.4660    1.7000   16.0230 C   0  0  0  0  0  0  0  0  0  0  0  0
   17.6970    1.4050   15.5630 N   0  0  0  0  0  0  0  0  0  0  0  0
   18.1270    2.6340   14.6020 S   0  0  0  0  0  0  0  0  0  0  0  0
   16.7980    3.5500   14.7480 N   0  0  0  0  0  0  0  0  0  0  0  0
   15.9590    2.9220   15.5640 C   0  0  0  0  0  0  0  0  0  0  0  0
   16.2160   -0.0620   17.7570 N   0  0  0  0  0  0  0  0  0  0  0  0
   17.6520   -0.2990   17.9390 C   0  0  0  0  0  0  0  0  0  0  0  0
   15.3140   -0.8100   18.6570 C   0  0  2  0  0  0  0  0  0  0  0  0
   15.2750   -0.1880   20.0420 C   0  0  0  0  0  0  0  0  0  0  0  0
   15.7540   -2.2530   18.6900 C   0  0  0  0  0  0  0  0  0  0  0  0
   17.1460   -2.3740   18.9910 O   0  0  0  0  0  0  0  0  0  0  0  0
   17.9400   -1.7850   17.9940 C   0  0  2  0  0  0  0  0  0  0  0  0
   19.3720   -2.0640   18.3840 C   0  0  0  0  0  0  0  0  0  0  0  0
 14 15  1  1
 14  9  1  0
  9  8  1  0
 10  8  1  0
 10 11  1  1
 12 10  1  0
 13 12  1  0
 14 13  1  0
  8  2  1  0
  2  1  2  0
  3  2  1  0
  3  7  1  0
  7  6  2  0
  6  5  1  0
  5  4  1  0
  4  3  2  0
M  END
>  <id>  (99) 
5887

>  <inchikey>  (99) 
IKMQGCCZPWFVJE-RNFRBKRXSA-N

>  <alias>  (99) 
c0858d

>  <smiles>  (99) 
C[C@@H]1CN(C(=O)c2cnsn2)[C@H](C)CO1

>  <path>  (99) 
/opt/xchem-fragalysis-2/maxwin/CHIKV_Mac_20240920/aligned_files/c0858d/c0858d_hippo.pdb

>  <compound>  (99) 
IKMQGCCZPWFVJE-UHFFFAOYSA-N

>  <target>  (99) 
CHIKV_Mac

>  <tags>  (99) 
['hits', '[Other] Trp148 site', '[Other] fragment screen']

>  <reference>  (99) 
None

>  <exports>  (99) 
['/opt/xchem-fragalysis-2/maxwin/CHIKV_HIPPO/web_resources/hit_poses.sdf', '/opt/xchem-fragalysis-2/maxwin/CHIKV_HIPPO/web/web_resources/hit_poses.sdf', '/opt/xchem-fragalysis-2/maxwin/CHIKV_HIPPO/web2/web_resources/hit_poses.sdf']

>  <observation_longname>  (99) 
nan

>  <ConformerSites alias>  (99) 
nan

>  <CanonSites alias>  (99) 
nan

>  <CrystalformSites alias>  (99) 
nan

>  <Quatassemblies alias>  (99) 
nan

>  <Crystalforms alias>  (99) 
nan

$$$$
c0864c
     RDKit          3D

 14 16  0  0  0  0  0  0  0  0999 V2000
   14.9410   11.0420   17.3730 C   0  0  0  0  0  0  0  0  0  0  0  0
   14.9950   11.6830   16.1610 C   0  0  0  0  0  0  0  0  0  0  0  0
   14.8560    9.7300   17.1300 N   0  0  0  0  0  0  0  0  0  0  0  0
   14.8550    9.4630   15.8000 N   0  0  0  0  0  0  0  0  0  0  0  0
   14.9280   10.6590   15.1980 C   0  0  0  0  0  0  0  0  0  0  0  0
   14.8700   10.7740   13.7310 C   0  0  0  0  0  0  0  0  0  0  0  0
   14.3580   11.9380   13.1310 C   0  0  0  0  0  0  0  0  0  0  0  0
   14.3170   12.0750   11.7520 C   0  0  0  0  0  0  0  0  0  0  0  0
   15.3440    9.7390   12.9280 C   0  0  0  0  0  0  0  0  0  0  0  0
   15.3090    9.8960   11.5610 C   0  0  0  0  0  0  0  0  0  0  0  0
   14.7970   11.0320   10.9840 C   0  0  0  0  0  0  0  0  0  0  0  0
   14.8230   10.9110    9.6140 O   0  0  0  0  0  0  0  0  0  0  0  0
   15.8120    9.0580   10.5890 O   0  0  0  0  0  0  0  0  0  0  0  0
   15.6640    9.7770    9.3620 C   0  0  0  0  0  0  0  0  0  0  0  0
 14 12  1  0
 12 11  1  0
 11  8  1  0
  8  7  2  0
  7  6  1  0
  9  6  2  0
 10  9  1  0
 11 10  2  0
 13 10  1  0
 14 13  1  0
  6  5  1  0
  5  2  1  0
  2  1  2  0
  3  1  1  0
  4  3  1  0
  5  4  2  0
M  END
>  <id>  (100) 
5888

>  <inchikey>  (100) 
LOPAFWMOCZGHFX-UHFFFAOYSA-N

>  <alias>  (100) 
c0864c

>  <smiles>  (100) 
c1cc(-c2ccc3c(c2)OCO3)n[nH]1

>  <path>  (100) 
/opt/xchem-fragalysis-2/maxwin/CHIKV_Mac_20240920/aligned_files/c0864c/c0864c_hippo.pdb

>  <compound>  (100) 
LOPAFWMOCZGHFX-UHFFFAOYSA-N

>  <target>  (100) 
CHIKV_Mac

>  <tags>  (100) 
['[Other] Adenine site', 'hits', '[Other] fragment screen']

>  <reference>  (100) 
None

>  <exports>  (100) 
['/opt/xchem-fragalysis-2/maxwin/CHIKV_HIPPO/web_resources/hit_poses.sdf', '/opt/xchem-fragalysis-2/maxwin/CHIKV_HIPPO/web/web_resources/hit_poses.sdf', '/opt/xchem-fragalysis-2/maxwin/CHIKV_HIPPO/web2/web_resources/hit_poses.sdf']

>  <observation_longname>  (100) 
nan

>  <ConformerSites alias>  (100) 
nan

>  <CanonSites alias>  (100) 
nan

>  <CrystalformSites alias>  (100) 
nan

>  <Quatassemblies alias>  (100) 
nan

>  <Crystalforms alias>  (100) 
nan

$$$$
c0864d
     RDKit          3D

 14 16  0  0  0  0  0  0  0  0999 V2000
   25.0150   14.2020    9.8930 C   0  0  0  0  0  0  0  0  0  0  0  0
   23.7650   14.3620   10.4210 C   0  0  0  0  0  0  0  0  0  0  0  0
   25.0700   12.9780    9.3560 N   0  0  0  0  0  0  0  0  0  0  0  0
   23.9010   12.3080    9.5030 N   0  0  0  0  0  0  0  0  0  0  0  0
   23.0930   13.1530   10.1580 C   0  0  0  0  0  0  0  0  0  0  0  0
   21.7150   12.7720   10.5000 C   0  0  0  0  0  0  0  0  0  0  0  0
   21.1280   11.6290    9.9320 C   0  0  0  0  0  0  0  0  0  0  0  0
   19.8060   11.3040   10.1870 C   0  0  0  0  0  0  0  0  0  0  0  0
   20.9660   13.5750   11.3570 C   0  0  0  0  0  0  0  0  0  0  0  0
   19.6560   13.2330   11.6070 C   0  0  0  0  0  0  0  0  0  0  0  0
   19.0840   12.1280   11.0280 C   0  0  0  0  0  0  0  0  0  0  0  0
   17.7590   12.0380   11.3910 O   0  0  0  0  0  0  0  0  0  0  0  0
   18.7480   13.8690   12.4230 O   0  0  0  0  0  0  0  0  0  0  0  0
   17.5360   13.1170   12.3070 C   0  0  0  0  0  0  0  0  0  0  0  0
 14 12  1  0
 12 11  1  0
 11  8  1  0
  8  7  2  0
  7  6  1  0
  9  6  2  0
 10  9  1  0
 11 10  2  0
 13 10  1  0
 14 13  1  0
  6  5  1  0
  5  2  1  0
  2  1  2  0
  3  1  1  0
  4  3  1  0
  5  4  2  0
M  END
>  <id>  (101) 
5889

>  <inchikey>  (101) 
LOPAFWMOCZGHFX-UHFFFAOYSA-N

>  <alias>  (101) 
c0864d

>  <smiles>  (101) 
c1cc(-c2ccc3c(c2)OCO3)n[nH]1

>  <path>  (101) 
/opt/xchem-fragalysis-2/maxwin/CHIKV_Mac_20240920/aligned_files/c0864d/c0864d_hippo.pdb

>  <compound>  (101) 
LOPAFWMOCZGHFX-UHFFFAOYSA-N

>  <target>  (101) 
CHIKV_Mac

>  <tags>  (101) 
['hits', '[Other] Arg144 pocket', '[Other] fragment screen']

>  <reference>  (101) 
None

>  <exports>  (101) 
['/opt/xchem-fragalysis-2/maxwin/CHIKV_HIPPO/web_resources/hit_poses.sdf', '/opt/xchem-fragalysis-2/maxwin/CHIKV_HIPPO/web/web_resources/hit_poses.sdf', '/opt/xchem-fragalysis-2/maxwin/CHIKV_HIPPO/web2/web_resources/hit_poses.sdf']

>  <observation_longname>  (101) 
nan

>  <ConformerSites alias>  (101) 
nan

>  <CanonSites alias>  (101) 
nan

>  <CrystalformSites alias>  (101) 
nan

>  <Quatassemblies alias>  (101) 
nan

>  <Crystalforms alias>  (101) 
nan

$$$$
c0864e
     RDKit          3D

 14 16  0  0  0  0  0  0  0  0999 V2000
   15.0040    9.6160   17.3440 C   0  0  0  0  0  0  0  0  0  0  0  0
   14.8170    9.2260   16.0470 C   0  0  0  0  0  0  0  0  0  0  0  0
   15.3110   10.9170   17.3320 N   0  0  0  0  0  0  0  0  0  0  0  0
   15.3320   11.4170   16.0750 N   0  0  0  0  0  0  0  0  0  0  0  0
   15.0300   10.3840   15.2780 C   0  0  0  0  0  0  0  0  0  0  0  0
   14.9610   10.5500   13.8150 C   0  0  0  0  0  0  0  0  0  0  0  0
   14.6170   11.7920   13.2590 C   0  0  0  0  0  0  0  0  0  0  0  0
   14.6070   11.9840   11.8830 C   0  0  0  0  0  0  0  0  0  0  0  0
   15.2790    9.4850   12.9720 C   0  0  0  0  0  0  0  0  0  0  0  0
   15.2550    9.6890   11.6060 C   0  0  0  0  0  0  0  0  0  0  0  0
   14.9310   10.9130   11.0730 C   0  0  0  0  0  0  0  0  0  0  0  0
   14.9740   10.8540    9.6970 O   0  0  0  0  0  0  0  0  0  0  0  0
   15.5140    8.7860   10.5960 O   0  0  0  0  0  0  0  0  0  0  0  0
   15.4730    9.5490    9.3860 C   0  0  0  0  0  0  0  0  0  0  0  0
 14 12  1  0
 12 11  1  0
 11  8  1  0
  8  7  2  0
  7  6  1  0
  9  6  2  0
 10  9  1  0
 11 10  2  0
 13 10  1  0
 14 13  1  0
  6  5  1  0
  5  2  1  0
  2  1  2  0
  3  1  1  0
  4  3  1  0
  5  4  2  0
M  END
>  <id>  (102) 
5890

>  <inchikey>  (102) 
LOPAFWMOCZGHFX-UHFFFAOYSA-N

>  <alias>  (102) 
c0864e

>  <smiles>  (102) 
c1cc(-c2ccc3c(c2)OCO3)n[nH]1

>  <path>  (102) 
/opt/xchem-fragalysis-2/maxwin/CHIKV_Mac_20240920/aligned_files/c0864e/c0864e_hippo.pdb

>  <compound>  (102) 
LOPAFWMOCZGHFX-UHFFFAOYSA-N

>  <target>  (102) 
CHIKV_Mac

>  <tags>  (102) 
['[Other] Adenine site', 'hits', '[Other] fragment screen']

>  <reference>  (102) 
None

>  <exports>  (102) 
['/opt/xchem-fragalysis-2/maxwin/CHIKV_HIPPO/web_resources/hit_poses.sdf', '/opt/xchem-fragalysis-2/maxwin/CHIKV_HIPPO/web/web_resources/hit_poses.sdf', '/opt/xchem-fragalysis-2/maxwin/CHIKV_HIPPO/web2/web_resources/hit_poses.sdf']

>  <observation_longname>  (102) 
nan

>  <ConformerSites alias>  (102) 
nan

>  <CanonSites alias>  (102) 
nan

>  <CrystalformSites alias>  (102) 
nan

>  <Quatassemblies alias>  (102) 
nan

>  <Crystalforms alias>  (102) 
nan

$$$$
c0864a
     RDKit          3D

 14 16  0  0  0  0  0  0  0  0999 V2000
   15.2850   10.2090   17.3780 C   0  0  0  0  0  0  0  0  0  0  0  0
   15.1020    9.7430   16.1060 C   0  0  0  0  0  0  0  0  0  0  0  0
   15.4820   11.5290   17.2970 N   0  0  0  0  0  0  0  0  0  0  0  0
   15.4360   11.9690   16.0150 N   0  0  0  0  0  0  0  0  0  0  0  0
   15.1970   10.8760   15.2790 C   0  0  0  0  0  0  0  0  0  0  0  0
   15.0380   10.9690   13.8190 C   0  0  0  0  0  0  0  0  0  0  0  0
   14.5040   12.1310   13.2340 C   0  0  0  0  0  0  0  0  0  0  0  0
   14.3520   12.2320   11.8610 C   0  0  0  0  0  0  0  0  0  0  0  0
   15.4250    9.9040   13.0070 C   0  0  0  0  0  0  0  0  0  0  0  0
   15.2730   10.0260   11.6420 C   0  0  0  0  0  0  0  0  0  0  0  0
   14.7480   11.1630   11.0810 C   0  0  0  0  0  0  0  0  0  0  0  0
   14.6980   11.0330    9.7090 O   0  0  0  0  0  0  0  0  0  0  0  0
   15.5980    9.1160   10.6580 O   0  0  0  0  0  0  0  0  0  0  0  0
   15.3920    9.8120    9.4210 C   0  0  0  0  0  0  0  0  0  0  0  0
 14 12  1  0
 12 11  1  0
 11  8  1  0
  8  7  2  0
  7  6  1  0
  9  6  2  0
 10  9  1  0
 11 10  2  0
 13 10  1  0
 14 13  1  0
  6  5  1  0
  5  2  1  0
  2  1  2  0
  3  1  1  0
  4  3  1  0
  5  4  2  0
M  END
>  <id>  (103) 
5891

>  <inchikey>  (103) 
LOPAFWMOCZGHFX-UHFFFAOYSA-N

>  <alias>  (103) 
c0864a

>  <smiles>  (103) 
c1cc(-c2ccc3c(c2)OCO3)n[nH]1

>  <path>  (103) 
/opt/xchem-fragalysis-2/maxwin/CHIKV_Mac_20240920/aligned_files/c0864a/c0864a_hippo.pdb

>  <compound>  (103) 
LOPAFWMOCZGHFX-UHFFFAOYSA-N

>  <target>  (103) 
CHIKV_Mac

>  <tags>  (103) 
['[Other] Adenine site', 'hits', '[Other] fragment screen']

>  <reference>  (103) 
None

>  <exports>  (103) 
['/opt/xchem-fragalysis-2/maxwin/CHIKV_HIPPO/web_resources/hit_poses.sdf', '/opt/xchem-fragalysis-2/maxwin/CHIKV_HIPPO/web/web_resources/hit_poses.sdf', '/opt/xchem-fragalysis-2/maxwin/CHIKV_HIPPO/web2/web_resources/hit_poses.sdf']

>  <observation_longname>  (103) 
nan

>  <ConformerSites alias>  (103) 
nan

>  <CanonSites alias>  (103) 
nan

>  <CrystalformSites alias>  (103) 
nan

>  <Quatassemblies alias>  (103) 
nan

>  <Crystalforms alias>  (103) 
nan

$$$$
c0864b
     RDKit          3D

 14 16  0  0  0  0  0  0  0  0999 V2000
   17.0140   15.3570   15.1840 C   0  0  0  0  0  0  0  0  0  0  0  0
   18.0990   14.5970   14.8470 C   0  0  0  0  0  0  0  0  0  0  0  0
   16.2890   15.5380   14.0740 N   0  0  0  0  0  0  0  0  0  0  0  0
   16.8470   14.9270   13.0030 N   0  0  0  0  0  0  0  0  0  0  0  0
   17.9570   14.3410   13.4710 C   0  0  0  0  0  0  0  0  0  0  0  0
   18.8050   13.5200   12.5890 C   0  0  0  0  0  0  0  0  0  0  0  0
   18.2310   12.5390   11.7660 C   0  0  0  0  0  0  0  0  0  0  0  0
   19.0130   11.7420   10.9450 C   0  0  0  0  0  0  0  0  0  0  0  0
   20.1900   13.7030   12.5800 C   0  0  0  0  0  0  0  0  0  0  0  0
   20.9540   12.8990   11.7610 C   0  0  0  0  0  0  0  0  0  0  0  0
   20.3810   11.9400   10.9600 C   0  0  0  0  0  0  0  0  0  0  0  0
   21.3590   11.2640   10.2650 O   0  0  0  0  0  0  0  0  0  0  0  0
   22.3240   12.8720   11.6200 O   0  0  0  0  0  0  0  0  0  0  0  0
   22.5930   11.7000   10.8420 C   0  0  0  0  0  0  0  0  0  0  0  0
 14 12  1  0
 12 11  1  0
 11  8  1  0
  8  7  2  0
  7  6  1  0
  9  6  2  0
 10  9  1  0
 11 10  2  0
 13 10  1  0
 14 13  1  0
  6  5  1  0
  5  2  1  0
  2  1  2  0
  3  1  1  0
  4  3  1  0
  5  4  2  0
M  END
>  <id>  (104) 
5892

>  <inchikey>  (104) 
LOPAFWMOCZGHFX-UHFFFAOYSA-N

>  <alias>  (104) 
c0864b

>  <smiles>  (104) 
c1cc(-c2ccc3c(c2)OCO3)n[nH]1

>  <path>  (104) 
/opt/xchem-fragalysis-2/maxwin/CHIKV_Mac_20240920/aligned_files/c0864b/c0864b_hippo.pdb

>  <compound>  (104) 
LOPAFWMOCZGHFX-UHFFFAOYSA-N

>  <target>  (104) 
CHIKV_Mac

>  <tags>  (104) 
['hits', '[Other] Arg144 pocket', '[Other] fragment screen']

>  <reference>  (104) 
None

>  <exports>  (104) 
['/opt/xchem-fragalysis-2/maxwin/CHIKV_HIPPO/web_resources/hit_poses.sdf', '/opt/xchem-fragalysis-2/maxwin/CHIKV_HIPPO/web/web_resources/hit_poses.sdf', '/opt/xchem-fragalysis-2/maxwin/CHIKV_HIPPO/web2/web_resources/hit_poses.sdf']

>  <observation_longname>  (104) 
nan

>  <ConformerSites alias>  (104) 
nan

>  <CanonSites alias>  (104) 
nan

>  <CrystalformSites alias>  (104) 
nan

>  <Quatassemblies alias>  (104) 
nan

>  <Crystalforms alias>  (104) 
nan

$$$$
c0888b
     RDKit          3D

 12 13  0  0  0  0  0  0  0  0999 V2000
    2.6710   28.0200    6.4020 O   0  0  0  0  0  0  0  0  0  0  0  0
    2.9690   26.9470    6.9080 C   0  0  0  0  0  0  0  0  0  0  0  0
    2.1190   26.0610    7.5000 N   0  0  0  0  0  0  0  0  0  0  0  0
    4.3750   26.3670    7.0150 C   0  0  2  0  0  0  0  0  0  0  0  0
    4.0990   25.1410    7.7570 N   0  0  0  0  0  0  0  0  0  0  0  0
    2.7930   24.9690    8.0170 C   0  0  0  0  0  0  0  0  0  0  0  0
    2.2880   24.0220    8.6190 O   0  0  0  0  0  0  0  0  0  0  0  0
    5.3320   27.3040    7.7670 C   0  0  0  0  0  0  0  0  0  0  0  0
    6.6630   26.7120    7.8360 N   0  0  0  0  0  0  0  0  0  0  0  0
    7.2190   26.4710    6.4980 C   0  0  0  0  0  0  0  0  0  0  0  0
    6.3610   25.5350    5.6900 C   0  0  0  0  0  0  0  0  0  0  0  0
    4.9360   26.0700    5.6170 C   0  0  0  0  0  0  0  0  0  0  0  0
  7  6  2  0
  6  3  1  0
  3  2  1  0
  2  1  2  0
  4  2  1  0
  4 12  1  6
 12 11  1  0
 11 10  1  0
 10  9  1  0
  9  8  1  0
  8  4  1  0
  5  4  1  0
  6  5  1  0
M  END
>  <id>  (105) 
5893

>  <inchikey>  (105) 
PLFDWSDBRBNQLQ-SSDOTTSWSA-N

>  <alias>  (105) 
c0888b

>  <smiles>  (105) 
O=C1NC(=O)[C@]2(CCCNC2)N1

>  <path>  (105) 
/opt/xchem-fragalysis-2/maxwin/CHIKV_Mac_20240920/aligned_files/c0888b/c0888b.pdb

>  <compound>  (105) 
PLFDWSDBRBNQLQ-UHFFFAOYSA-N

>  <target>  (105) 
CHIKV_Mac

>  <tags>  (105) 
['[Other] ignore', 'hits']

>  <reference>  (105) 
None

>  <exports>  (105) 
['/opt/xchem-fragalysis-2/maxwin/CHIKV_HIPPO/web_resources/hit_poses.sdf', '/opt/xchem-fragalysis-2/maxwin/CHIKV_HIPPO/web/web_resources/hit_poses.sdf', '/opt/xchem-fragalysis-2/maxwin/CHIKV_HIPPO/web2/web_resources/hit_poses.sdf']

>  <observation_longname>  (105) 
nan

>  <ConformerSites alias>  (105) 
nan

>  <CanonSites alias>  (105) 
nan

>  <CrystalformSites alias>  (105) 
nan

>  <Quatassemblies alias>  (105) 
nan

>  <Crystalforms alias>  (105) 
nan

$$$$
c0888a
     RDKit          3D

 12 13  0  0  0  0  0  0  0  0999 V2000
   17.9220    3.8910   14.4290 O   0  0  0  0  0  0  0  0  0  0  0  0
   17.4430    2.9380   15.0190 C   0  0  0  0  0  0  0  0  0  0  0  0
   16.1420    2.5370   14.9810 N   0  0  0  0  0  0  0  0  0  0  0  0
   18.2080    1.9210   15.8690 C   0  0  1  0  0  0  0  0  0  0  0  0
   17.1530    0.9510   16.1340 N   0  0  0  0  0  0  0  0  0  0  0  0
   15.9540    1.3400   15.6480 C   0  0  0  0  0  0  0  0  0  0  0  0
   14.8780    0.7480   15.7670 O   0  0  0  0  0  0  0  0  0  0  0  0
   19.4130    1.3990   15.1350 C   0  0  0  0  0  0  0  0  0  0  0  0
   19.9620    0.3240   15.9530 N   0  0  0  0  0  0  0  0  0  0  0  0
   20.5460    0.8600   17.1940 C   0  0  0  0  0  0  0  0  0  0  0  0
   19.5080    1.5770   18.0330 C   0  0  0  0  0  0  0  0  0  0  0  0
   18.7310    2.5640   17.1630 C   0  0  0  0  0  0  0  0  0  0  0  0
  7  6  2  0
  6  3  1  0
  3  2  1  0
  2  1  2  0
  4  2  1  0
  4 12  1  1
 12 11  1  0
 11 10  1  0
 10  9  1  0
  9  8  1  0
  8  4  1  0
  5  4  1  0
  6  5  1  0
M  END
>  <id>  (106) 
5894

>  <inchikey>  (106) 
PLFDWSDBRBNQLQ-ZETCQYMHSA-N

>  <alias>  (106) 
c0888a

>  <smiles>  (106) 
O=C1NC(=O)[C@@]2(CCCNC2)N1

>  <path>  (106) 
/opt/xchem-fragalysis-2/maxwin/CHIKV_Mac_20240920/aligned_files/c0888a/c0888a_hippo.pdb

>  <compound>  (106) 
PLFDWSDBRBNQLQ-UHFFFAOYSA-N

>  <target>  (106) 
CHIKV_Mac

>  <tags>  (106) 
['hits', '[Other] Trp148 site', '[Other] fragment screen']

>  <reference>  (106) 
None

>  <exports>  (106) 
['/opt/xchem-fragalysis-2/maxwin/CHIKV_HIPPO/web_resources/hit_poses.sdf', '/opt/xchem-fragalysis-2/maxwin/CHIKV_HIPPO/web/web_resources/hit_poses.sdf', '/opt/xchem-fragalysis-2/maxwin/CHIKV_HIPPO/web2/web_resources/hit_poses.sdf']

>  <observation_longname>  (106) 
nan

>  <ConformerSites alias>  (106) 
nan

>  <CanonSites alias>  (106) 
nan

>  <CrystalformSites alias>  (106) 
nan

>  <Quatassemblies alias>  (106) 
nan

>  <Crystalforms alias>  (106) 
nan

$$$$
c0892a
     RDKit          3D

 15 16  0  0  0  0  0  0  0  0999 V2000
   14.8150    7.6610   11.1350 O   0  0  0  0  0  0  0  0  0  0  0  0
   14.7760    8.5240   12.0080 C   0  0  0  0  0  0  0  0  0  0  0  0
   14.7120    9.9750   11.6690 C   0  0  0  0  0  0  0  0  0  0  0  0
   14.4260   11.0910   12.4410 C   0  0  0  0  0  0  0  0  0  0  0  0
   14.3090   12.1340   11.5320 C   0  0  0  0  0  0  0  0  0  0  0  0
   14.5250   11.7460   10.2810 N   0  0  0  0  0  0  0  0  0  0  0  0
   14.7930   10.4150   10.3840 N   0  0  0  0  0  0  0  0  0  0  0  0
   15.1220    9.6780    9.1720 C   0  0  0  0  0  0  0  0  0  0  0  0
   14.7400    8.2270   13.3090 N   0  0  0  0  0  0  0  0  0  0  0  0
   14.4930    6.8700   13.7580 C   0  0  0  0  0  0  0  0  0  0  0  0
   13.0830    6.4300   13.4970 C   0  0  0  0  0  0  0  0  0  0  0  0
   11.8490    7.0400   14.4990 S   0  0  0  0  0  0  0  0  0  0  0  0
   10.6170    6.2040   13.6700 C   0  0  0  0  0  0  0  0  0  0  0  0
   11.1070    5.4680   12.6530 C   0  0  0  0  0  0  0  0  0  0  0  0
   12.5450    5.5720   12.5180 C   0  0  0  0  0  0  0  0  0  0  0  0
  8  7  1  0
  7  6  1  0
  6  5  2  0
  5  4  1  0
  4  3  2  0
  7  3  1  0
  3  2  1  0
  2  1  2  0
  9  2  1  0
 10  9  1  0
 11 10  1  0
 11 15  2  0
 15 14  1  0
 14 13  2  0
 13 12  1  0
 12 11  1  0
M  END
>  <id>  (107) 
5895

>  <inchikey>  (107) 
KZOMSPKSWBGZMC-UHFFFAOYSA-N

>  <alias>  (107) 
c0892a

>  <smiles>  (107) 
Cn1nccc1C(=O)NCc1cccs1

>  <path>  (107) 
/opt/xchem-fragalysis-2/maxwin/CHIKV_Mac_20240920/aligned_files/c0892a/c0892a_hippo.pdb

>  <compound>  (107) 
KZOMSPKSWBGZMC-UHFFFAOYSA-N

>  <target>  (107) 
CHIKV_Mac

>  <tags>  (107) 
['[Other] Adenine site', 'hits', '[Other] Phosphate site', '[Other] fragment screen']

>  <reference>  (107) 
None

>  <exports>  (107) 
['/opt/xchem-fragalysis-2/maxwin/CHIKV_HIPPO/web_resources/hit_poses.sdf', '/opt/xchem-fragalysis-2/maxwin/CHIKV_HIPPO/web/web_resources/hit_poses.sdf', '/opt/xchem-fragalysis-2/maxwin/CHIKV_HIPPO/web2/web_resources/hit_poses.sdf']

>  <observation_longname>  (107) 
nan

>  <ConformerSites alias>  (107) 
nan

>  <CanonSites alias>  (107) 
nan

>  <CrystalformSites alias>  (107) 
nan

>  <Quatassemblies alias>  (107) 
nan

>  <Crystalforms alias>  (107) 
nan

$$$$
c0892b
     RDKit          3D

 15 16  0  0  0  0  0  0  0  0999 V2000
   15.0040    7.9860   12.5260 O   0  0  0  0  0  0  0  0  0  0  0  0
   15.0900    9.1380   12.9540 C   0  0  0  0  0  0  0  0  0  0  0  0
   14.8410   10.3140   12.0810 C   0  0  0  0  0  0  0  0  0  0  0  0
   14.4610   11.5910   12.4530 C   0  0  0  0  0  0  0  0  0  0  0  0
   14.3270   12.2870   11.2580 C   0  0  0  0  0  0  0  0  0  0  0  0
   14.6040   11.5410   10.1980 N   0  0  0  0  0  0  0  0  0  0  0  0
   14.9280   10.3240   10.7210 N   0  0  0  0  0  0  0  0  0  0  0  0
   15.3240    9.2580    9.8090 C   0  0  0  0  0  0  0  0  0  0  0  0
   15.4220    9.4310   14.2130 N   0  0  0  0  0  0  0  0  0  0  0  0
   15.1270    8.5380   15.3130 C   0  0  0  0  0  0  0  0  0  0  0  0
   14.9330    9.2470   16.6110 C   0  0  0  0  0  0  0  0  0  0  0  0
   13.9900    8.5100   17.8330 S   0  0  0  0  0  0  0  0  0  0  0  0
   14.1880    9.8510   18.8860 C   0  0  0  0  0  0  0  0  0  0  0  0
   14.9460   10.8310   18.3440 C   0  0  0  0  0  0  0  0  0  0  0  0
   15.3980   10.5120   17.0250 C   0  0  0  0  0  0  0  0  0  0  0  0
  8  7  1  0
  7  6  1  0
  6  5  2  0
  5  4  1  0
  4  3  2  0
  7  3  1  0
  3  2  1  0
  2  1  2  0
  9  2  1  0
 10  9  1  0
 11 10  1  0
 11 15  2  0
 15 14  1  0
 14 13  2  0
 13 12  1  0
 12 11  1  0
M  END
>  <id>  (108) 
5896

>  <inchikey>  (108) 
KZOMSPKSWBGZMC-UHFFFAOYSA-N

>  <alias>  (108) 
c0892b

>  <smiles>  (108) 
Cn1nccc1C(=O)NCc1cccs1

>  <path>  (108) 
/opt/xchem-fragalysis-2/maxwin/CHIKV_Mac_20240920/aligned_files/c0892b/c0892b.pdb

>  <compound>  (108) 
KZOMSPKSWBGZMC-UHFFFAOYSA-N

>  <target>  (108) 
CHIKV_Mac

>  <tags>  (108) 
['[Other] Adenine site', 'hits', '[Other] Phosphate site', '[Other] fragment screen']

>  <reference>  (108) 
None

>  <exports>  (108) 
['/opt/xchem-fragalysis-2/maxwin/CHIKV_HIPPO/web_resources/hit_poses.sdf', '/opt/xchem-fragalysis-2/maxwin/CHIKV_HIPPO/web/web_resources/hit_poses.sdf', '/opt/xchem-fragalysis-2/maxwin/CHIKV_HIPPO/web2/web_resources/hit_poses.sdf']

>  <observation_longname>  (108) 
CHIKV_MacB-x0892_D_306_1_CHIKV_MacB-x2352+C+401+1

>  <ConformerSites alias>  (108) 
1a - c2352/C/401

>  <CanonSites alias>  (108) 
1 - c2352/C/401/1

>  <CrystalformSites alias>  (108) 
F1a - c0270/A/304

>  <Quatassemblies alias>  (108) 
A1 - monomer

>  <Crystalforms alias>  (108) 
F1 - P31-4fold-NCS

$$$$
c0894a
     RDKit          3D

 10 11  0  0  0  0  0  0  0  0999 V2000
   15.0110   10.2710   14.7080 Cl  0  0  0  0  0  0  0  0  0  0  0  0
   15.0120    9.8750   13.0260 C   0  0  0  0  0  0  0  0  0  0  0  0
   14.7970   10.8740   12.0860 C   0  0  0  0  0  0  0  0  0  0  0  0
   14.4160   12.1860   12.2030 N   0  0  0  0  0  0  0  0  0  0  0  0
   14.1640   12.6160   10.9450 C   0  0  0  0  0  0  0  0  0  0  0  0
   14.3570   11.6950   10.0170 N   0  0  0  0  0  0  0  0  0  0  0  0
   14.7510   10.5600   10.7250 C   0  0  0  0  0  0  0  0  0  0  0  0
   14.9680    9.2380   10.3230 C   0  0  0  0  0  0  0  0  0  0  0  0
   15.1970    8.2530   11.2790 C   0  0  0  0  0  0  0  0  0  0  0  0
   15.2080    8.5640   12.6340 C   0  0  0  0  0  0  0  0  0  0  0  0
  2  1  1  0
  2 10  2  0
 10  9  1  0
  9  8  2  0
  8  7  1  0
  7  6  1  0
  6  5  2  0
  5  4  1  0
  4  3  1  0
  3  2  1  0
  7  3  2  0
M  END
>  <id>  (109) 
5897

>  <inchikey>  (109) 
RPYPMOKNVPZWKZ-UHFFFAOYSA-N

>  <alias>  (109) 
c0894a

>  <smiles>  (109) 
Clc1cccc2nc[nH]c12

>  <path>  (109) 
/opt/xchem-fragalysis-2/maxwin/CHIKV_Mac_20240920/aligned_files/c0894a/c0894a_hippo.pdb

>  <compound>  (109) 
RPYPMOKNVPZWKZ-UHFFFAOYSA-N

>  <target>  (109) 
CHIKV_Mac

>  <tags>  (109) 
['[Other] Adenine site', 'hits', '[Other] fragment screen']

>  <reference>  (109) 
None

>  <exports>  (109) 
['/opt/xchem-fragalysis-2/maxwin/CHIKV_HIPPO/web_resources/hit_poses.sdf', '/opt/xchem-fragalysis-2/maxwin/CHIKV_HIPPO/web/web_resources/hit_poses.sdf', '/opt/xchem-fragalysis-2/maxwin/CHIKV_HIPPO/web2/web_resources/hit_poses.sdf']

>  <observation_longname>  (109) 
nan

>  <ConformerSites alias>  (109) 
nan

>  <CanonSites alias>  (109) 
nan

>  <CrystalformSites alias>  (109) 
nan

>  <Quatassemblies alias>  (109) 
nan

>  <Crystalforms alias>  (109) 
nan

$$$$
c0894b
     RDKit          3D

 10 11  0  0  0  0  0  0  0  0999 V2000
   17.7000   13.7210   12.5570 Cl  0  0  0  0  0  0  0  0  0  0  0  0
   19.0420   12.9190   11.8040 C   0  0  0  0  0  0  0  0  0  0  0  0
   20.3390   13.3090   12.1110 C   0  0  0  0  0  0  0  0  0  0  0  0
   20.8500   14.2360   12.9840 N   0  0  0  0  0  0  0  0  0  0  0  0
   22.1930   14.1910   12.8360 C   0  0  0  0  0  0  0  0  0  0  0  0
   22.6020   13.3090   11.9410 N   0  0  0  0  0  0  0  0  0  0  0  0
   21.4280   12.7250   11.4600 C   0  0  0  0  0  0  0  0  0  0  0  0
   21.1990   11.7280   10.5080 C   0  0  0  0  0  0  0  0  0  0  0  0
   19.8950   11.3290   10.2290 C   0  0  0  0  0  0  0  0  0  0  0  0
   18.8100   11.9230   10.8710 C   0  0  0  0  0  0  0  0  0  0  0  0
  2  1  1  0
  2 10  2  0
 10  9  1  0
  9  8  2  0
  8  7  1  0
  7  6  1  0
  6  5  2  0
  5  4  1  0
  4  3  1  0
  3  2  1  0
  7  3  2  0
M  END
>  <id>  (110) 
5898

>  <inchikey>  (110) 
RPYPMOKNVPZWKZ-UHFFFAOYSA-N

>  <alias>  (110) 
c0894b

>  <smiles>  (110) 
Clc1cccc2nc[nH]c12

>  <path>  (110) 
/opt/xchem-fragalysis-2/maxwin/CHIKV_Mac_20240920/aligned_files/c0894b/c0894b_hippo.pdb

>  <compound>  (110) 
RPYPMOKNVPZWKZ-UHFFFAOYSA-N

>  <target>  (110) 
CHIKV_Mac

>  <tags>  (110) 
['hits', '[Other] Arg144 pocket', '[Other] fragment screen']

>  <reference>  (110) 
None

>  <exports>  (110) 
['/opt/xchem-fragalysis-2/maxwin/CHIKV_HIPPO/web_resources/hit_poses.sdf', '/opt/xchem-fragalysis-2/maxwin/CHIKV_HIPPO/web/web_resources/hit_poses.sdf', '/opt/xchem-fragalysis-2/maxwin/CHIKV_HIPPO/web2/web_resources/hit_poses.sdf']

>  <observation_longname>  (110) 
CHIKV_MacB-x0894_A_402_1_CHIKV_MacB-x2352+C+401+1

>  <ConformerSites alias>  (110) 
1a - c2352/C/401

>  <CanonSites alias>  (110) 
1 - c2352/C/401/1

>  <CrystalformSites alias>  (110) 
F1a - c0270/A/304

>  <Quatassemblies alias>  (110) 
A1 - monomer

>  <Crystalforms alias>  (110) 
F1 - P31-4fold-NCS

$$$$
c0894d
     RDKit          3D

 10 11  0  0  0  0  0  0  0  0999 V2000
   22.8840   13.1800   13.1490 Cl  0  0  0  0  0  0  0  0  0  0  0  0
   21.8600   12.3750   12.0070 C   0  0  0  0  0  0  0  0  0  0  0  0
   20.4790   12.4400   12.1450 C   0  0  0  0  0  0  0  0  0  0  0  0
   19.6560   13.1180   13.0100 N   0  0  0  0  0  0  0  0  0  0  0  0
   18.3890   12.8450   12.6150 C   0  0  0  0  0  0  0  0  0  0  0  0
   18.3180   12.0500   11.5630 N   0  0  0  0  0  0  0  0  0  0  0  0
   19.6470   11.7760   11.2390 C   0  0  0  0  0  0  0  0  0  0  0  0
   20.2270   11.0380   10.2050 C   0  0  0  0  0  0  0  0  0  0  0  0
   21.6120   10.9900   10.0780 C   0  0  0  0  0  0  0  0  0  0  0  0
   22.4340   11.6600   10.9750 C   0  0  0  0  0  0  0  0  0  0  0  0
  2  1  1  0
  2 10  2  0
 10  9  1  0
  9  8  2  0
  8  7  1  0
  7  6  1  0
  6  5  2  0
  5  4  1  0
  4  3  1  0
  3  2  1  0
  7  3  2  0
M  END
>  <id>  (111) 
5899

>  <inchikey>  (111) 
RPYPMOKNVPZWKZ-UHFFFAOYSA-N

>  <alias>  (111) 
c0894d

>  <smiles>  (111) 
Clc1cccc2nc[nH]c12

>  <path>  (111) 
/opt/xchem-fragalysis-2/maxwin/CHIKV_Mac_20240920/aligned_files/c0894d/c0894d_hippo.pdb

>  <compound>  (111) 
RPYPMOKNVPZWKZ-UHFFFAOYSA-N

>  <target>  (111) 
CHIKV_Mac

>  <tags>  (111) 
['hits', '[Other] Arg144 pocket', '[Other] fragment screen']

>  <reference>  (111) 
None

>  <exports>  (111) 
['/opt/xchem-fragalysis-2/maxwin/CHIKV_HIPPO/web_resources/hit_poses.sdf', '/opt/xchem-fragalysis-2/maxwin/CHIKV_HIPPO/web/web_resources/hit_poses.sdf', '/opt/xchem-fragalysis-2/maxwin/CHIKV_HIPPO/web2/web_resources/hit_poses.sdf']

>  <observation_longname>  (111) 
nan

>  <ConformerSites alias>  (111) 
nan

>  <CanonSites alias>  (111) 
nan

>  <CrystalformSites alias>  (111) 
nan

>  <Quatassemblies alias>  (111) 
nan

>  <Crystalforms alias>  (111) 
nan

$$$$
c0894e
     RDKit          3D

 10 11  0  0  0  0  0  0  0  0999 V2000
   21.5590   14.5560   12.7420 Cl  0  0  0  0  0  0  0  0  0  0  0  0
   20.5400   13.4420   11.9010 C   0  0  0  0  0  0  0  0  0  0  0  0
   21.0720   12.6330   10.9080 C   0  0  0  0  0  0  0  0  0  0  0  0
   22.3390   12.4840   10.4070 N   0  0  0  0  0  0  0  0  0  0  0  0
   22.2640   11.4990    9.4860 C   0  0  0  0  0  0  0  0  0  0  0  0
   21.0520   10.9910    9.3460 N   0  0  0  0  0  0  0  0  0  0  0  0
   20.2650   11.7020   10.2490 C   0  0  0  0  0  0  0  0  0  0  0  0
   18.9150   11.6110   10.5890 C   0  0  0  0  0  0  0  0  0  0  0  0
   18.3940   12.4400   11.5800 C   0  0  0  0  0  0  0  0  0  0  0  0
   19.2040   13.3560   12.2420 C   0  0  0  0  0  0  0  0  0  0  0  0
  2  1  1  0
  2 10  2  0
 10  9  1  0
  9  8  2  0
  8  7  1  0
  7  6  1  0
  6  5  2  0
  5  4  1  0
  4  3  1  0
  3  2  1  0
  7  3  2  0
M  END
>  <id>  (112) 
5900

>  <inchikey>  (112) 
RPYPMOKNVPZWKZ-UHFFFAOYSA-N

>  <alias>  (112) 
c0894e

>  <smiles>  (112) 
Clc1cccc2nc[nH]c12

>  <path>  (112) 
/opt/xchem-fragalysis-2/maxwin/CHIKV_Mac_20240920/aligned_files/c0894e/c0894e_hippo.pdb

>  <compound>  (112) 
RPYPMOKNVPZWKZ-UHFFFAOYSA-N

>  <target>  (112) 
CHIKV_Mac

>  <tags>  (112) 
['hits', '[Other] Arg144 pocket', '[Other] fragment screen']

>  <reference>  (112) 
None

>  <exports>  (112) 
['/opt/xchem-fragalysis-2/maxwin/CHIKV_HIPPO/web_resources/hit_poses.sdf', '/opt/xchem-fragalysis-2/maxwin/CHIKV_HIPPO/web/web_resources/hit_poses.sdf', '/opt/xchem-fragalysis-2/maxwin/CHIKV_HIPPO/web2/web_resources/hit_poses.sdf']

>  <observation_longname>  (112) 
nan

>  <ConformerSites alias>  (112) 
nan

>  <CanonSites alias>  (112) 
nan

>  <CrystalformSites alias>  (112) 
nan

>  <Quatassemblies alias>  (112) 
nan

>  <Crystalforms alias>  (112) 
nan

$$$$
c0894c
     RDKit          3D

 10 11  0  0  0  0  0  0  0  0999 V2000
   14.1370   12.7980   11.2940 Cl  0  0  0  0  0  0  0  0  0  0  0  0
   14.6140   11.3350   12.0900 C   0  0  0  0  0  0  0  0  0  0  0  0
   14.9470   10.2170   11.3360 C   0  0  0  0  0  0  0  0  0  0  0  0
   14.9930    9.9880    9.9840 N   0  0  0  0  0  0  0  0  0  0  0  0
   15.2650    8.6720    9.8360 C   0  0  0  0  0  0  0  0  0  0  0  0
   15.4060    8.0230   10.9780 N   0  0  0  0  0  0  0  0  0  0  0  0
   15.2010    8.9930   11.9610 C   0  0  0  0  0  0  0  0  0  0  0  0
   15.1500    8.9210   13.3550 C   0  0  0  0  0  0  0  0  0  0  0  0
   14.8430   10.0590   14.0970 C   0  0  0  0  0  0  0  0  0  0  0  0
   14.5740   11.2690   13.4690 C   0  0  0  0  0  0  0  0  0  0  0  0
  2  1  1  0
  2 10  2  0
 10  9  1  0
  9  8  2  0
  8  7  1  0
  7  6  1  0
  6  5  2  0
  5  4  1  0
  4  3  1  0
  3  2  1  0
  7  3  2  0
M  END
>  <id>  (113) 
5901

>  <inchikey>  (113) 
RPYPMOKNVPZWKZ-UHFFFAOYSA-N

>  <alias>  (113) 
c0894c

>  <smiles>  (113) 
Clc1cccc2nc[nH]c12

>  <path>  (113) 
/opt/xchem-fragalysis-2/maxwin/CHIKV_Mac_20240920/aligned_files/c0894c/c0894c_hippo.pdb

>  <compound>  (113) 
RPYPMOKNVPZWKZ-UHFFFAOYSA-N

>  <target>  (113) 
CHIKV_Mac

>  <tags>  (113) 
['[Other] Adenine site', 'hits', '[Other] fragment screen']

>  <reference>  (113) 
None

>  <exports>  (113) 
['/opt/xchem-fragalysis-2/maxwin/CHIKV_HIPPO/web_resources/hit_poses.sdf', '/opt/xchem-fragalysis-2/maxwin/CHIKV_HIPPO/web/web_resources/hit_poses.sdf', '/opt/xchem-fragalysis-2/maxwin/CHIKV_HIPPO/web2/web_resources/hit_poses.sdf']

>  <observation_longname>  (113) 
CHIKV_MacB-x0894_B_308_1_CHIKV_MacB-x2352+C+401+1

>  <ConformerSites alias>  (113) 
1a - c2352/C/401

>  <CanonSites alias>  (113) 
1 - c2352/C/401/1

>  <CrystalformSites alias>  (113) 
F1a - c0270/A/304

>  <Quatassemblies alias>  (113) 
A1 - monomer

>  <Crystalforms alias>  (113) 
F1 - P31-4fold-NCS

$$$$
c0894f
     RDKit          3D

 10 11  0  0  0  0  0  0  0  0999 V2000
   15.1730    9.7980   14.8370 Cl  0  0  0  0  0  0  0  0  0  0  0  0
   15.2080    9.6360   13.1120 C   0  0  0  0  0  0  0  0  0  0  0  0
   14.9980   10.7500   12.3070 C   0  0  0  0  0  0  0  0  0  0  0  0
   14.5860   12.0300   12.5820 N   0  0  0  0  0  0  0  0  0  0  0  0
   14.4120   12.6350   11.3820 C   0  0  0  0  0  0  0  0  0  0  0  0
   14.6780   11.8580   10.3490 N   0  0  0  0  0  0  0  0  0  0  0  0
   15.0520   10.6350   10.9140 C   0  0  0  0  0  0  0  0  0  0  0  0
   15.3490    9.3910   10.3470 C   0  0  0  0  0  0  0  0  0  0  0  0
   15.5500    8.2830   11.1690 C   0  0  0  0  0  0  0  0  0  0  0  0
   15.4750    8.3990   12.5520 C   0  0  0  0  0  0  0  0  0  0  0  0
  2  1  1  0
  2 10  2  0
 10  9  1  0
  9  8  2  0
  8  7  1  0
  7  6  1  0
  6  5  2  0
  5  4  1  0
  4  3  1  0
  3  2  1  0
  7  3  2  0
M  END
>  <id>  (114) 
5902

>  <inchikey>  (114) 
RPYPMOKNVPZWKZ-UHFFFAOYSA-N

>  <alias>  (114) 
c0894f

>  <smiles>  (114) 
Clc1cccc2nc[nH]c12

>  <path>  (114) 
/opt/xchem-fragalysis-2/maxwin/CHIKV_Mac_20240920/aligned_files/c0894f/c0894f_hippo.pdb

>  <compound>  (114) 
RPYPMOKNVPZWKZ-UHFFFAOYSA-N

>  <target>  (114) 
CHIKV_Mac

>  <tags>  (114) 
['[Other] Adenine site', 'hits', '[Other] fragment screen']

>  <reference>  (114) 
None

>  <exports>  (114) 
['/opt/xchem-fragalysis-2/maxwin/CHIKV_HIPPO/web_resources/hit_poses.sdf', '/opt/xchem-fragalysis-2/maxwin/CHIKV_HIPPO/web/web_resources/hit_poses.sdf', '/opt/xchem-fragalysis-2/maxwin/CHIKV_HIPPO/web2/web_resources/hit_poses.sdf']

>  <observation_longname>  (114) 
nan

>  <ConformerSites alias>  (114) 
nan

>  <CanonSites alias>  (114) 
nan

>  <CrystalformSites alias>  (114) 
nan

>  <Quatassemblies alias>  (114) 
nan

>  <Crystalforms alias>  (114) 
nan

$$$$
c0926a
     RDKit          3D

 15 16  0  0  0  0  0  0  0  0999 V2000
   17.7650   -1.8910   16.9940 O   0  0  0  0  0  0  0  0  0  0  0  0
   17.2520   -0.8130   17.2310 C   0  0  0  0  0  0  0  0  0  0  0  0
   16.4630   -0.6570   18.3070 N   0  0  0  0  0  0  0  0  0  0  0  0
   15.9390   -1.7940   19.0720 C   0  0  0  0  0  0  0  0  0  0  0  0
   16.4440   -1.7310   20.4930 C   0  0  0  0  0  0  0  0  0  0  0  0
   16.0600   -0.4200   21.1420 C   0  0  0  0  0  0  0  0  0  0  0  0
   16.5210    0.7720   20.3050 C   0  0  0  0  0  0  0  0  0  0  0  0
   16.0920    0.6670   18.8430 C   0  0  2  0  0  0  0  0  0  0  0  0
   14.6140    0.9600   18.6310 C   0  0  0  0  0  0  0  0  0  0  0  0
   17.5410    0.3390   16.3020 C   0  0  0  0  0  0  0  0  0  0  0  0
   18.8160    0.7120   16.1310 N   0  0  0  0  0  0  0  0  0  0  0  0
   19.0430    1.6810   15.2340 C   0  0  0  0  0  0  0  0  0  0  0  0
   18.0220    2.2720   14.5280 C   0  0  0  0  0  0  0  0  0  0  0  0
   16.7460    1.9110   14.7000 N   0  0  0  0  0  0  0  0  0  0  0  0
   16.5130    0.9470   15.5960 C   0  0  0  0  0  0  0  0  0  0  0  0
  8  9  1  1
  8  7  1  0
  7  6  1  0
  6  5  1  0
  5  4  1  0
  4  3  1  0
  8  3  1  0
  3  2  1  0
  2  1  2  0
 10  2  1  0
 10 15  2  0
 15 14  1  0
 14 13  2  0
 13 12  1  0
 12 11  2  0
 11 10  1  0
M  END
>  <id>  (115) 
5903

>  <inchikey>  (115) 
MICBEIYHPVLFTJ-VIFPVBQESA-N

>  <alias>  (115) 
c0926a

>  <smiles>  (115) 
C[C@H]1CCCCN1C(=O)c1cnccn1

>  <path>  (115) 
/opt/xchem-fragalysis-2/maxwin/CHIKV_Mac_20240920/aligned_files/c0926a/c0926a_hippo.pdb

>  <compound>  (115) 
MICBEIYHPVLFTJ-UHFFFAOYSA-N

>  <target>  (115) 
CHIKV_Mac

>  <tags>  (115) 
['hits', '[Other] Trp148 site', '[Other] fragment screen']

>  <reference>  (115) 
None

>  <exports>  (115) 
['/opt/xchem-fragalysis-2/maxwin/CHIKV_HIPPO/web_resources/hit_poses.sdf', '/opt/xchem-fragalysis-2/maxwin/CHIKV_HIPPO/web/web_resources/hit_poses.sdf', '/opt/xchem-fragalysis-2/maxwin/CHIKV_HIPPO/web2/web_resources/hit_poses.sdf']

>  <observation_longname>  (115) 
CHIKV_MacB-x0926_A_401_1_CHIKV_MacB-x2352+C+401+1

>  <ConformerSites alias>  (115) 
1a - c2352/C/401

>  <CanonSites alias>  (115) 
1 - c2352/C/401/1

>  <CrystalformSites alias>  (115) 
F1a - c0270/A/304

>  <Quatassemblies alias>  (115) 
A1 - monomer

>  <Crystalforms alias>  (115) 
F1 - P31-4fold-NCS

$$$$
c0926b
     RDKit          3D

 15 16  0  0  0  0  0  0  0  0999 V2000
   17.5680   -1.9030   17.2920 O   0  0  0  0  0  0  0  0  0  0  0  0
   17.2000   -0.7800   17.5780 C   0  0  0  0  0  0  0  0  0  0  0  0
   16.4150   -0.5870   18.6560 N   0  0  0  0  0  0  0  0  0  0  0  0
   15.0410   -0.0760   18.6330 C   0  0  0  0  0  0  0  0  0  0  0  0
   14.8380    1.0170   19.6570 C   0  0  0  0  0  0  0  0  0  0  0  0
   15.2520    0.5500   21.0380 C   0  0  0  0  0  0  0  0  0  0  0  0
   16.6790    0.0130   21.0310 C   0  0  0  0  0  0  0  0  0  0  0  0
   16.8930   -1.0610   19.9690 C   0  0  1  0  0  0  0  0  0  0  0  0
   16.2620   -2.3910   20.3390 C   0  0  0  0  0  0  0  0  0  0  0  0
   17.6620    0.3500   16.6940 C   0  0  0  0  0  0  0  0  0  0  0  0
   18.9830    0.5490   16.5710 N   0  0  0  0  0  0  0  0  0  0  0  0
   19.3710    1.4440   15.6500 C   0  0  0  0  0  0  0  0  0  0  0  0
   18.4620    2.1390   14.8790 C   0  0  0  0  0  0  0  0  0  0  0  0
   17.1450    1.9660   15.0180 N   0  0  0  0  0  0  0  0  0  0  0  0
   16.7510    1.0700   15.9270 C   0  0  0  0  0  0  0  0  0  0  0  0
  8  9  1  1
  8  7  1  0
  7  6  1  0
  6  5  1  0
  5  4  1  0
  4  3  1  0
  8  3  1  0
  3  2  1  0
  2  1  2  0
 10  2  1  0
 10 15  2  0
 15 14  1  0
 14 13  2  0
 13 12  1  0
 12 11  2  0
 11 10  1  0
M  END
>  <id>  (116) 
5904

>  <inchikey>  (116) 
MICBEIYHPVLFTJ-SECBINFHSA-N

>  <alias>  (116) 
c0926b

>  <smiles>  (116) 
C[C@@H]1CCCCN1C(=O)c1cnccn1

>  <path>  (116) 
/opt/xchem-fragalysis-2/maxwin/CHIKV_Mac_20240920/aligned_files/c0926b/c0926b_hippo.pdb

>  <compound>  (116) 
MICBEIYHPVLFTJ-UHFFFAOYSA-N

>  <target>  (116) 
CHIKV_Mac

>  <tags>  (116) 
['hits', '[Other] Trp148 site', '[Other] fragment screen']

>  <reference>  (116) 
None

>  <exports>  (116) 
['/opt/xchem-fragalysis-2/maxwin/CHIKV_HIPPO/web_resources/hit_poses.sdf', '/opt/xchem-fragalysis-2/maxwin/CHIKV_HIPPO/web/web_resources/hit_poses.sdf', '/opt/xchem-fragalysis-2/maxwin/CHIKV_HIPPO/web2/web_resources/hit_poses.sdf']

>  <observation_longname>  (116) 
nan

>  <ConformerSites alias>  (116) 
nan

>  <CanonSites alias>  (116) 
nan

>  <CrystalformSites alias>  (116) 
nan

>  <Quatassemblies alias>  (116) 
nan

>  <Crystalforms alias>  (116) 
nan

$$$$
c0926c
     RDKit          3D

 15 16  0  0  0  0  0  0  0  0999 V2000
   17.8640   -1.4320   17.1010 O   0  0  0  0  0  0  0  0  0  0  0  0
   17.3990   -0.3220   17.2960 C   0  0  0  0  0  0  0  0  0  0  0  0
   16.6010   -0.0900   18.3630 N   0  0  0  0  0  0  0  0  0  0  0  0
   15.6900   -1.1380   18.8260 C   0  0  0  0  0  0  0  0  0  0  0  0
   16.1420   -1.6370   20.1770 C   0  0  0  0  0  0  0  0  0  0  0  0
   16.1710   -0.5050   21.1890 C   0  0  0  0  0  0  0  0  0  0  0  0
   16.9560    0.6930   20.6630 C   0  0  0  0  0  0  0  0  0  0  0  0
   16.5410    1.0900   19.2500 C   0  0  1  0  0  0  0  0  0  0  0  0
   17.3680    2.2460   18.7140 C   0  0  0  0  0  0  0  0  0  0  0  0
   17.7270    0.7630   16.3050 C   0  0  0  0  0  0  0  0  0  0  0  0
   19.0160    1.0800   16.1230 N   0  0  0  0  0  0  0  0  0  0  0  0
   19.2710    2.0520   15.2380 C   0  0  0  0  0  0  0  0  0  0  0  0
   18.2640    2.6930   14.5470 C   0  0  0  0  0  0  0  0  0  0  0  0
   16.9780    2.3740   14.7210 N   0  0  0  0  0  0  0  0  0  0  0  0
   16.7170    1.4080   15.6050 C   0  0  0  0  0  0  0  0  0  0  0  0
  8  9  1  6
  8  7  1  0
  7  6  1  0
  6  5  1  0
  5  4  1  0
  4  3  1  0
  8  3  1  0
  3  2  1  0
  2  1  2  0
 10  2  1  0
 10 15  2  0
 15 14  1  0
 14 13  2  0
 13 12  1  0
 12 11  2  0
 11 10  1  0
M  END
>  <id>  (117) 
5905

>  <inchikey>  (117) 
MICBEIYHPVLFTJ-SECBINFHSA-N

>  <alias>  (117) 
c0926c

>  <smiles>  (117) 
C[C@@H]1CCCCN1C(=O)c1cnccn1

>  <path>  (117) 
/opt/xchem-fragalysis-2/maxwin/CHIKV_Mac_20240920/aligned_files/c0926c/c0926c_hippo.pdb

>  <compound>  (117) 
MICBEIYHPVLFTJ-UHFFFAOYSA-N

>  <target>  (117) 
CHIKV_Mac

>  <tags>  (117) 
['hits', '[Other] Trp148 site', '[Other] fragment screen']

>  <reference>  (117) 
None

>  <exports>  (117) 
['/opt/xchem-fragalysis-2/maxwin/CHIKV_HIPPO/web_resources/hit_poses.sdf', '/opt/xchem-fragalysis-2/maxwin/CHIKV_HIPPO/web/web_resources/hit_poses.sdf', '/opt/xchem-fragalysis-2/maxwin/CHIKV_HIPPO/web2/web_resources/hit_poses.sdf']

>  <observation_longname>  (117) 
nan

>  <ConformerSites alias>  (117) 
nan

>  <CanonSites alias>  (117) 
nan

>  <CrystalformSites alias>  (117) 
nan

>  <Quatassemblies alias>  (117) 
nan

>  <Crystalforms alias>  (117) 
nan

$$$$
c0927a
     RDKit          3D

 14 15  0  0  0  0  0  0  0  0999 V2000
   14.6170    1.0440   15.9970 O   0  0  0  0  0  0  0  0  0  0  0  0
   15.8340    1.1120   15.9080 C   0  0  0  0  0  0  0  0  0  0  0  0
   16.6420    1.9860   14.9840 C   0  0  0  0  0  0  0  0  0  0  0  0
   18.0170    1.5430   15.3790 C   0  0  0  0  0  0  0  0  0  0  0  0
   19.2660    2.0420   14.7320 C   0  0  0  0  0  0  0  0  0  0  0  0
   16.7360    0.3760   16.6510 N   0  0  0  0  0  0  0  0  0  0  0  0
   18.0450    0.6680   16.3080 N   0  0  0  0  0  0  0  0  0  0  0  0
   16.4830   -0.6190   17.6470 C   0  0  0  0  0  0  0  0  0  0  0  0
   17.3370   -1.7150   17.7530 C   0  0  0  0  0  0  0  0  0  0  0  0
   17.1180   -2.6790   18.7360 C   0  0  0  0  0  0  0  0  0  0  0  0
   17.9710   -3.7380   18.8650 N   0  0  0  0  0  0  0  0  0  0  0  0
   16.0270   -2.5370   19.5960 C   0  0  0  0  0  0  0  0  0  0  0  0
   15.1700   -1.4540   19.4740 C   0  0  0  0  0  0  0  0  0  0  0  0
   15.3940   -0.4890   18.5080 C   0  0  0  0  0  0  0  0  0  0  0  0
  5  4  1  0
  4  7  2  0
  7  6  1  0
  6  2  1  0
  2  1  2  0
  3  2  1  0
  4  3  1  0
  8  6  1  0
  8 14  2  0
 14 13  1  0
 13 12  2  0
 12 10  1  0
 11 10  1  0
 10  9  2  0
  9  8  1  0
M  END
>  <id>  (118) 
5906

>  <inchikey>  (118) 
LCYJOUXSUHOSCW-UHFFFAOYSA-N

>  <alias>  (118) 
c0927a

>  <smiles>  (118) 
CC1=NN(c2cccc(N)c2)C(=O)C1

>  <path>  (118) 
/opt/xchem-fragalysis-2/maxwin/CHIKV_Mac_20240920/aligned_files/c0927a/c0927a_hippo.pdb

>  <compound>  (118) 
LCYJOUXSUHOSCW-UHFFFAOYSA-N

>  <target>  (118) 
CHIKV_Mac

>  <tags>  (118) 
['hits', '[Other] Trp148 site', '[Other] fragment screen']

>  <reference>  (118) 
None

>  <exports>  (118) 
['/opt/xchem-fragalysis-2/maxwin/CHIKV_HIPPO/web_resources/hit_poses.sdf', '/opt/xchem-fragalysis-2/maxwin/CHIKV_HIPPO/web/web_resources/hit_poses.sdf', '/opt/xchem-fragalysis-2/maxwin/CHIKV_HIPPO/web2/web_resources/hit_poses.sdf']

>  <observation_longname>  (118) 
nan

>  <ConformerSites alias>  (118) 
nan

>  <CanonSites alias>  (118) 
nan

>  <CrystalformSites alias>  (118) 
nan

>  <Quatassemblies alias>  (118) 
nan

>  <Crystalforms alias>  (118) 
nan

$$$$
c0927b
     RDKit          3D

 14 15  0  0  0  0  0  0  0  0999 V2000
   14.7900    0.7620   15.6700 O   0  0  0  0  0  0  0  0  0  0  0  0
   15.9750    1.0630   15.7110 C   0  0  0  0  0  0  0  0  0  0  0  0
   16.6750    2.1610   14.9540 C   0  0  0  0  0  0  0  0  0  0  0  0
   18.0920    1.7870   15.2710 C   0  0  0  0  0  0  0  0  0  0  0  0
   19.2810    2.4380   14.6500 C   0  0  0  0  0  0  0  0  0  0  0  0
   16.9410    0.4090   16.4440 N   0  0  0  0  0  0  0  0  0  0  0  0
   18.2110    0.8430   16.1220 N   0  0  0  0  0  0  0  0  0  0  0  0
   16.7780   -0.5980   17.4450 C   0  0  0  0  0  0  0  0  0  0  0  0
   17.6770   -1.6620   17.5100 C   0  0  0  0  0  0  0  0  0  0  0  0
   17.4830   -2.6780   18.4490 C   0  0  0  0  0  0  0  0  0  0  0  0
   18.3820   -3.7140   18.5520 N   0  0  0  0  0  0  0  0  0  0  0  0
   16.3780   -2.6140   19.3030 C   0  0  0  0  0  0  0  0  0  0  0  0
   15.4980   -1.5500   19.2330 C   0  0  0  0  0  0  0  0  0  0  0  0
   15.6960   -0.5360   18.3140 C   0  0  0  0  0  0  0  0  0  0  0  0
  5  4  1  0
  4  7  2  0
  7  6  1  0
  6  2  1  0
  2  1  2  0
  3  2  1  0
  4  3  1  0
  8  6  1  0
  8 14  2  0
 14 13  1  0
 13 12  2  0
 12 10  1  0
 11 10  1  0
 10  9  2  0
  9  8  1  0
M  END
>  <id>  (119) 
5907

>  <inchikey>  (119) 
LCYJOUXSUHOSCW-UHFFFAOYSA-N

>  <alias>  (119) 
c0927b

>  <smiles>  (119) 
CC1=NN(c2cccc(N)c2)C(=O)C1

>  <path>  (119) 
/opt/xchem-fragalysis-2/maxwin/CHIKV_Mac_20240920/aligned_files/c0927b/c0927b_hippo.pdb

>  <compound>  (119) 
LCYJOUXSUHOSCW-UHFFFAOYSA-N

>  <target>  (119) 
CHIKV_Mac

>  <tags>  (119) 
['hits', '[Other] Trp148 site', '[Other] fragment screen']

>  <reference>  (119) 
None

>  <exports>  (119) 
['/opt/xchem-fragalysis-2/maxwin/CHIKV_HIPPO/web_resources/hit_poses.sdf', '/opt/xchem-fragalysis-2/maxwin/CHIKV_HIPPO/web/web_resources/hit_poses.sdf', '/opt/xchem-fragalysis-2/maxwin/CHIKV_HIPPO/web2/web_resources/hit_poses.sdf']

>  <observation_longname>  (119) 
nan

>  <ConformerSites alias>  (119) 
nan

>  <CanonSites alias>  (119) 
nan

>  <CrystalformSites alias>  (119) 
nan

>  <Quatassemblies alias>  (119) 
nan

>  <Crystalforms alias>  (119) 
nan

$$$$
c0927c
     RDKit          3D

 14 15  0  0  0  0  0  0  0  0999 V2000
   14.6420    1.2060   16.0960 O   0  0  0  0  0  0  0  0  0  0  0  0
   15.8500    1.2920   15.9510 C   0  0  0  0  0  0  0  0  0  0  0  0
   16.6070    2.2850   15.1090 C   0  0  0  0  0  0  0  0  0  0  0  0
   18.0050    1.8320   15.4060 C   0  0  0  0  0  0  0  0  0  0  0  0
   19.2220    2.4540   14.8100 C   0  0  0  0  0  0  0  0  0  0  0  0
   16.7880    0.4750   16.5500 N   0  0  0  0  0  0  0  0  0  0  0  0
   18.0810    0.8390   16.2050 N   0  0  0  0  0  0  0  0  0  0  0  0
   16.5850   -0.6510   17.4070 C   0  0  0  0  0  0  0  0  0  0  0  0
   17.5420   -1.6650   17.4440 C   0  0  0  0  0  0  0  0  0  0  0  0
   17.3790   -2.7510   18.3060 C   0  0  0  0  0  0  0  0  0  0  0  0
   18.3330   -3.7390   18.3650 N   0  0  0  0  0  0  0  0  0  0  0  0
   16.2400   -2.8110   19.1150 C   0  0  0  0  0  0  0  0  0  0  0  0
   15.2870   -1.8060   19.0620 C   0  0  0  0  0  0  0  0  0  0  0  0
   15.4540   -0.7230   18.2150 C   0  0  0  0  0  0  0  0  0  0  0  0
  5  4  1  0
  4  7  2  0
  7  6  1  0
  6  2  1  0
  2  1  2  0
  3  2  1  0
  4  3  1  0
  8  6  1  0
  8 14  2  0
 14 13  1  0
 13 12  2  0
 12 10  1  0
 11 10  1  0
 10  9  2  0
  9  8  1  0
M  END
>  <id>  (120) 
5908

>  <inchikey>  (120) 
LCYJOUXSUHOSCW-UHFFFAOYSA-N

>  <alias>  (120) 
c0927c

>  <smiles>  (120) 
CC1=NN(c2cccc(N)c2)C(=O)C1

>  <path>  (120) 
/opt/xchem-fragalysis-2/maxwin/CHIKV_Mac_20240920/aligned_files/c0927c/c0927c_hippo.pdb

>  <compound>  (120) 
LCYJOUXSUHOSCW-UHFFFAOYSA-N

>  <target>  (120) 
CHIKV_Mac

>  <tags>  (120) 
['hits', '[Other] Trp148 site', '[Other] fragment screen']

>  <reference>  (120) 
None

>  <exports>  (120) 
['/opt/xchem-fragalysis-2/maxwin/CHIKV_HIPPO/web_resources/hit_poses.sdf', '/opt/xchem-fragalysis-2/maxwin/CHIKV_HIPPO/web/web_resources/hit_poses.sdf', '/opt/xchem-fragalysis-2/maxwin/CHIKV_HIPPO/web2/web_resources/hit_poses.sdf']

>  <observation_longname>  (120) 
nan

>  <ConformerSites alias>  (120) 
nan

>  <CanonSites alias>  (120) 
nan

>  <CrystalformSites alias>  (120) 
nan

>  <Quatassemblies alias>  (120) 
nan

>  <Crystalforms alias>  (120) 
nan

$$$$
c0934a
     RDKit          3D

 15 15  0  0  0  0  0  0  0  0999 V2000
   16.0070    4.0470   15.9580 O   0  0  0  0  0  0  0  0  0  0  0  0
   16.3360    3.7390   14.8030 C   0  0  0  0  0  0  0  0  0  0  0  0
   16.2250    4.5660   13.7780 N   0  0  0  0  0  0  0  0  0  0  0  0
   16.9440    2.3870   14.4940 C   0  0  0  0  0  0  0  0  0  0  0  0
   17.0050    1.4400   15.5860 N   0  0  0  0  0  0  0  0  0  0  0  0
   15.9210    0.7970   16.0330 C   0  0  0  0  0  0  0  0  0  0  0  0
   14.8000    1.0090   15.5760 O   0  0  0  0  0  0  0  0  0  0  0  0
   16.1230   -0.2130   17.1220 C   0  0  0  0  0  0  0  0  0  0  0  0
   15.1050   -0.4390   18.0490 C   0  0  0  0  0  0  0  0  0  0  0  0
   15.2290   -1.4200   19.0160 C   0  0  0  0  0  0  0  0  0  0  0  0
   17.2720   -0.9860   17.1950 C   0  0  0  0  0  0  0  0  0  0  0  0
   17.4030   -1.9700   18.1600 C   0  0  0  0  0  0  0  0  0  0  0  0
   16.3760   -2.1960   19.0610 C   0  0  0  0  0  0  0  0  0  0  0  0
   16.3630   -3.1940   20.0010 O   0  0  0  0  0  0  0  0  0  0  0  0
   17.4550   -4.1130   20.0220 C   0  0  0  0  0  0  0  0  0  0  0  0
 15 14  1  0
 14 13  1  0
 13 10  2  0
 10  9  1  0
  9  8  2  0
 11  8  1  0
 12 11  2  0
 13 12  1  0
  8  6  1  0
  7  6  2  0
  6  5  1  0
  5  4  1  0
  4  2  1  0
  2  1  2  0
  3  2  1  0
M  END
>  <id>  (121) 
5909

>  <inchikey>  (121) 
ZKADLOGPYJUFCB-UHFFFAOYSA-N

>  <alias>  (121) 
c0934a

>  <smiles>  (121) 
COc1ccc(C(=O)NCC(N)=O)cc1

>  <path>  (121) 
/opt/xchem-fragalysis-2/maxwin/CHIKV_Mac_20240920/aligned_files/c0934a/c0934a_hippo.pdb

>  <compound>  (121) 
ZKADLOGPYJUFCB-UHFFFAOYSA-N

>  <target>  (121) 
CHIKV_Mac

>  <tags>  (121) 
['hits', '[Other] Trp148 site', '[Other] fragment screen']

>  <reference>  (121) 
None

>  <exports>  (121) 
['/opt/xchem-fragalysis-2/maxwin/CHIKV_HIPPO/web_resources/hit_poses.sdf', '/opt/xchem-fragalysis-2/maxwin/CHIKV_HIPPO/web/web_resources/hit_poses.sdf', '/opt/xchem-fragalysis-2/maxwin/CHIKV_HIPPO/web2/web_resources/hit_poses.sdf']

>  <observation_longname>  (121) 
nan

>  <ConformerSites alias>  (121) 
nan

>  <CanonSites alias>  (121) 
nan

>  <CrystalformSites alias>  (121) 
nan

>  <Quatassemblies alias>  (121) 
nan

>  <Crystalforms alias>  (121) 
nan

$$$$
c0934b
     RDKit          3D

 15 15  0  0  0  0  0  0  0  0999 V2000
   25.6510    7.8980   13.7350 O   0  0  0  0  0  0  0  0  0  0  0  0
   24.7840    8.7590   13.9090 C   0  0  0  0  0  0  0  0  0  0  0  0
   25.0380   10.0520   13.9140 N   0  0  0  0  0  0  0  0  0  0  0  0
   23.3510    8.3380   14.1130 C   0  0  0  0  0  0  0  0  0  0  0  0
   22.3850    9.3850   13.8750 N   0  0  0  0  0  0  0  0  0  0  0  0
   22.0130    9.6890   12.6220 C   0  0  0  0  0  0  0  0  0  0  0  0
   22.5420    9.1620   11.6500 O   0  0  0  0  0  0  0  0  0  0  0  0
   20.9240   10.7030   12.4470 C   0  0  0  0  0  0  0  0  0  0  0  0
   20.4400   10.9630   11.1610 C   0  0  0  0  0  0  0  0  0  0  0  0
   19.4910   11.9500   10.9470 C   0  0  0  0  0  0  0  0  0  0  0  0
   20.3920   11.4260   13.5120 C   0  0  0  0  0  0  0  0  0  0  0  0
   19.4270   12.3940   13.3060 C   0  0  0  0  0  0  0  0  0  0  0  0
   18.9860   12.6710   12.0170 C   0  0  0  0  0  0  0  0  0  0  0  0
   17.9970   13.5720   11.7060 O   0  0  0  0  0  0  0  0  0  0  0  0
   17.7280   14.6580   12.5940 C   0  0  0  0  0  0  0  0  0  0  0  0
 15 14  1  0
 14 13  1  0
 13 10  2  0
 10  9  1  0
  9  8  2  0
 11  8  1  0
 12 11  2  0
 13 12  1  0
  8  6  1  0
  7  6  2  0
  6  5  1  0
  5  4  1  0
  4  2  1  0
  2  1  2  0
  3  2  1  0
M  END
>  <id>  (122) 
5910

>  <inchikey>  (122) 
ZKADLOGPYJUFCB-UHFFFAOYSA-N

>  <alias>  (122) 
c0934b

>  <smiles>  (122) 
COc1ccc(C(=O)NCC(N)=O)cc1

>  <path>  (122) 
/opt/xchem-fragalysis-2/maxwin/CHIKV_Mac_20240920/aligned_files/c0934b/c0934b_hippo.pdb

>  <compound>  (122) 
ZKADLOGPYJUFCB-UHFFFAOYSA-N

>  <target>  (122) 
CHIKV_Mac

>  <tags>  (122) 
['[Other] ignore', 'hits']

>  <reference>  (122) 
None

>  <exports>  (122) 
['/opt/xchem-fragalysis-2/maxwin/CHIKV_HIPPO/web_resources/hit_poses.sdf', '/opt/xchem-fragalysis-2/maxwin/CHIKV_HIPPO/web/web_resources/hit_poses.sdf', '/opt/xchem-fragalysis-2/maxwin/CHIKV_HIPPO/web2/web_resources/hit_poses.sdf']

>  <observation_longname>  (122) 
nan

>  <ConformerSites alias>  (122) 
nan

>  <CanonSites alias>  (122) 
nan

>  <CrystalformSites alias>  (122) 
nan

>  <Quatassemblies alias>  (122) 
nan

>  <Crystalforms alias>  (122) 
nan

$$$$
c0934c
     RDKit          3D

 15 15  0  0  0  0  0  0  0  0999 V2000
   15.6880    4.4820   15.9360 O   0  0  0  0  0  0  0  0  0  0  0  0
   16.4670    3.5560   16.1730 C   0  0  0  0  0  0  0  0  0  0  0  0
   16.9300    3.2970   17.3880 N   0  0  0  0  0  0  0  0  0  0  0  0
   16.9220    2.6530   15.0520 C   0  0  0  0  0  0  0  0  0  0  0  0
   17.0960    1.2800   15.4700 N   0  0  0  0  0  0  0  0  0  0  0  0
   16.0920    0.6000   16.0290 C   0  0  0  0  0  0  0  0  0  0  0  0
   14.9160    0.8040   15.7270 O   0  0  0  0  0  0  0  0  0  0  0  0
   16.4520   -0.4480   17.0330 C   0  0  0  0  0  0  0  0  0  0  0  0
   15.5270   -0.7310   18.0290 C   0  0  0  0  0  0  0  0  0  0  0  0
   15.7390   -1.7660   18.9210 C   0  0  0  0  0  0  0  0  0  0  0  0
   17.6190   -1.2070   16.9710 C   0  0  0  0  0  0  0  0  0  0  0  0
   17.8370   -2.2440   17.8610 C   0  0  0  0  0  0  0  0  0  0  0  0
   16.8900   -2.5250   18.8330 C   0  0  0  0  0  0  0  0  0  0  0  0
   16.9730   -3.5180   19.7740 O   0  0  0  0  0  0  0  0  0  0  0  0
   18.0560   -4.4340   19.6790 C   0  0  0  0  0  0  0  0  0  0  0  0
 15 14  1  0
 14 13  1  0
 13 10  2  0
 10  9  1  0
  9  8  2  0
 11  8  1  0
 12 11  2  0
 13 12  1  0
  8  6  1  0
  7  6  2  0
  6  5  1  0
  5  4  1  0
  4  2  1  0
  2  1  2  0
  3  2  1  0
M  END
>  <id>  (123) 
5911

>  <inchikey>  (123) 
ZKADLOGPYJUFCB-UHFFFAOYSA-N

>  <alias>  (123) 
c0934c

>  <smiles>  (123) 
COc1ccc(C(=O)NCC(N)=O)cc1

>  <path>  (123) 
/opt/xchem-fragalysis-2/maxwin/CHIKV_Mac_20240920/aligned_files/c0934c/c0934c_hippo.pdb

>  <compound>  (123) 
ZKADLOGPYJUFCB-UHFFFAOYSA-N

>  <target>  (123) 
CHIKV_Mac

>  <tags>  (123) 
['hits', '[Other] Trp148 site', '[Other] fragment screen']

>  <reference>  (123) 
None

>  <exports>  (123) 
['/opt/xchem-fragalysis-2/maxwin/CHIKV_HIPPO/web_resources/hit_poses.sdf', '/opt/xchem-fragalysis-2/maxwin/CHIKV_HIPPO/web/web_resources/hit_poses.sdf', '/opt/xchem-fragalysis-2/maxwin/CHIKV_HIPPO/web2/web_resources/hit_poses.sdf']

>  <observation_longname>  (123) 
nan

>  <ConformerSites alias>  (123) 
nan

>  <CanonSites alias>  (123) 
nan

>  <CrystalformSites alias>  (123) 
nan

>  <Quatassemblies alias>  (123) 
nan

>  <Crystalforms alias>  (123) 
nan

$$$$
c0934d
     RDKit          3D

 15 15  0  0  0  0  0  0  0  0999 V2000
   15.6210    3.8580   16.4670 O   0  0  0  0  0  0  0  0  0  0  0  0
   15.9630    3.7080   15.2920 C   0  0  0  0  0  0  0  0  0  0  0  0
   15.8330    4.6550   14.3780 N   0  0  0  0  0  0  0  0  0  0  0  0
   16.5750    2.3980   14.8440 C   0  0  0  0  0  0  0  0  0  0  0  0
   16.7220    1.4150   15.8970 N   0  0  0  0  0  0  0  0  0  0  0  0
   15.6990    0.6430   16.2770 C   0  0  0  0  0  0  0  0  0  0  0  0
   14.5540    0.8160   15.8650 O   0  0  0  0  0  0  0  0  0  0  0  0
   15.9990   -0.4550   17.2450 C   0  0  0  0  0  0  0  0  0  0  0  0
   15.0990   -0.7120   18.2750 C   0  0  0  0  0  0  0  0  0  0  0  0
   15.3110   -1.7560   19.1550 C   0  0  0  0  0  0  0  0  0  0  0  0
   17.1210   -1.2700   17.1170 C   0  0  0  0  0  0  0  0  0  0  0  0
   17.3330   -2.3240   17.9880 C   0  0  0  0  0  0  0  0  0  0  0  0
   16.4280   -2.5660   19.0090 C   0  0  0  0  0  0  0  0  0  0  0  0
   16.5750   -3.5940   19.9070 O   0  0  0  0  0  0  0  0  0  0  0  0
   17.8960   -4.0030   20.2490 C   0  0  0  0  0  0  0  0  0  0  0  0
 15 14  1  0
 14 13  1  0
 13 10  2  0
 10  9  1  0
  9  8  2  0
 11  8  1  0
 12 11  2  0
 13 12  1  0
  8  6  1  0
  7  6  2  0
  6  5  1  0
  5  4  1  0
  4  2  1  0
  2  1  2  0
  3  2  1  0
M  END
>  <id>  (124) 
5912

>  <inchikey>  (124) 
ZKADLOGPYJUFCB-UHFFFAOYSA-N

>  <alias>  (124) 
c0934d

>  <smiles>  (124) 
COc1ccc(C(=O)NCC(N)=O)cc1

>  <path>  (124) 
/opt/xchem-fragalysis-2/maxwin/CHIKV_Mac_20240920/aligned_files/c0934d/c0934d_hippo.pdb

>  <compound>  (124) 
ZKADLOGPYJUFCB-UHFFFAOYSA-N

>  <target>  (124) 
CHIKV_Mac

>  <tags>  (124) 
['hits', '[Other] Trp148 site', '[Other] fragment screen']

>  <reference>  (124) 
None

>  <exports>  (124) 
['/opt/xchem-fragalysis-2/maxwin/CHIKV_HIPPO/web_resources/hit_poses.sdf', '/opt/xchem-fragalysis-2/maxwin/CHIKV_HIPPO/web/web_resources/hit_poses.sdf', '/opt/xchem-fragalysis-2/maxwin/CHIKV_HIPPO/web2/web_resources/hit_poses.sdf']

>  <observation_longname>  (124) 
nan

>  <ConformerSites alias>  (124) 
nan

>  <CanonSites alias>  (124) 
nan

>  <CrystalformSites alias>  (124) 
nan

>  <Quatassemblies alias>  (124) 
nan

>  <Crystalforms alias>  (124) 
nan

$$$$
c0935b
     RDKit          3D

 13 13  0  0  0  0  0  0  0  0999 V2000
   -1.3640   17.1290   -5.0700 O   0  0  0  0  0  0  0  0  0  0  0  0
   -1.5030   16.0260   -5.5810 C   0  0  0  0  0  0  0  0  0  0  0  0
   -2.8720   15.3770   -5.5660 C   0  0  0  0  0  0  0  0  0  0  0  0
   -2.8580   14.2460   -6.4200 O   0  0  0  0  0  0  0  0  0  0  0  0
   -4.1110   13.5630   -6.4390 C   0  0  0  0  0  0  0  0  0  0  0  0
   -0.4930   15.3360   -6.1720 N   0  0  0  0  0  0  0  0  0  0  0  0
    0.8740   15.7140   -6.2950 C   0  0  0  0  0  0  0  0  0  0  0  0
    1.4840   16.4470   -5.2830 C   0  0  0  0  0  0  0  0  0  0  0  0
    2.7880   16.8830   -5.4190 C   0  0  0  0  0  0  0  0  0  0  0  0
    3.5070   16.5800   -6.5670 C   0  0  0  0  0  0  0  0  0  0  0  0
    4.8080   16.9900   -6.6670 O   0  0  0  0  0  0  0  0  0  0  0  0
    2.9070   15.8450   -7.5820 C   0  0  0  0  0  0  0  0  0  0  0  0
    1.6030   15.4010   -7.4380 C   0  0  0  0  0  0  0  0  0  0  0  0
  5  4  1  0
  4  3  1  0
  3  2  1  0
  2  1  2  0
  6  2  1  0
  7  6  1  0
  7 13  2  0
 13 12  1  0
 12 10  2  0
 11 10  1  0
 10  9  1  0
  9  8  2  0
  8  7  1  0
M  END
>  <id>  (125) 
5913

>  <inchikey>  (125) 
NSZUGQROUUTGGI-UHFFFAOYSA-N

>  <alias>  (125) 
c0935b

>  <smiles>  (125) 
COCC(=O)Nc1ccc(O)cc1

>  <path>  (125) 
/opt/xchem-fragalysis-2/maxwin/CHIKV_Mac_20240920/aligned_files/c0935b/c0935b_hippo.pdb

>  <compound>  (125) 
NSZUGQROUUTGGI-UHFFFAOYSA-N

>  <target>  (125) 
CHIKV_Mac

>  <tags>  (125) 
['[Other] ignore', 'hits']

>  <reference>  (125) 
None

>  <exports>  (125) 
['/opt/xchem-fragalysis-2/maxwin/CHIKV_HIPPO/web_resources/hit_poses.sdf', '/opt/xchem-fragalysis-2/maxwin/CHIKV_HIPPO/web/web_resources/hit_poses.sdf', '/opt/xchem-fragalysis-2/maxwin/CHIKV_HIPPO/web2/web_resources/hit_poses.sdf']

>  <observation_longname>  (125) 
CHIKV_MacB-x0935_A_401_1_CHIKV_MacB-x0692+D+304+1

>  <ConformerSites alias>  (125) 
2a - c0692/D/304

>  <CanonSites alias>  (125) 
2 - c0692/D/304/1

>  <CrystalformSites alias>  (125) 
F1b - c0692/D/304

>  <Quatassemblies alias>  (125) 
A1 - monomer

>  <Crystalforms alias>  (125) 
F1 - P31-4fold-NCS

$$$$
c0935c
     RDKit          3D

 13 13  0  0  0  0  0  0  0  0999 V2000
   -1.5340   17.1640   -4.8130 O   0  0  0  0  0  0  0  0  0  0  0  0
   -1.6550   16.0470   -5.3020 C   0  0  0  0  0  0  0  0  0  0  0  0
   -3.0260   15.4080   -5.3670 C   0  0  0  0  0  0  0  0  0  0  0  0
   -2.9880   14.4180   -6.3790 O   0  0  0  0  0  0  0  0  0  0  0  0
   -4.1150   13.5470   -6.3250 C   0  0  0  0  0  0  0  0  0  0  0  0
   -0.6200   15.3200   -5.7880 N   0  0  0  0  0  0  0  0  0  0  0  0
    0.7110   15.7520   -6.0220 C   0  0  0  0  0  0  0  0  0  0  0  0
    1.3830   16.4920   -5.0550 C   0  0  0  0  0  0  0  0  0  0  0  0
    2.6730   16.9370   -5.2850 C   0  0  0  0  0  0  0  0  0  0  0  0
    3.3070   16.6390   -6.4820 C   0  0  0  0  0  0  0  0  0  0  0  0
    4.5780   17.0830   -6.6890 O   0  0  0  0  0  0  0  0  0  0  0  0
    2.6450   15.8960   -7.4510 C   0  0  0  0  0  0  0  0  0  0  0  0
    1.3520   15.4600   -7.2220 C   0  0  0  0  0  0  0  0  0  0  0  0
  5  4  1  0
  4  3  1  0
  3  2  1  0
  2  1  2  0
  6  2  1  0
  7  6  1  0
  7 13  2  0
 13 12  1  0
 12 10  2  0
 11 10  1  0
 10  9  1  0
  9  8  2  0
  8  7  1  0
M  END
>  <id>  (126) 
5914

>  <inchikey>  (126) 
NSZUGQROUUTGGI-UHFFFAOYSA-N

>  <alias>  (126) 
c0935c

>  <smiles>  (126) 
COCC(=O)Nc1ccc(O)cc1

>  <path>  (126) 
/opt/xchem-fragalysis-2/maxwin/CHIKV_Mac_20240920/aligned_files/c0935c/c0935c_hippo.pdb

>  <compound>  (126) 
NSZUGQROUUTGGI-UHFFFAOYSA-N

>  <target>  (126) 
CHIKV_Mac

>  <tags>  (126) 
['[Other] ignore', 'hits']

>  <reference>  (126) 
None

>  <exports>  (126) 
['/opt/xchem-fragalysis-2/maxwin/CHIKV_HIPPO/web_resources/hit_poses.sdf', '/opt/xchem-fragalysis-2/maxwin/CHIKV_HIPPO/web/web_resources/hit_poses.sdf', '/opt/xchem-fragalysis-2/maxwin/CHIKV_HIPPO/web2/web_resources/hit_poses.sdf']

>  <observation_longname>  (126) 
nan

>  <ConformerSites alias>  (126) 
nan

>  <CanonSites alias>  (126) 
nan

>  <CrystalformSites alias>  (126) 
nan

>  <Quatassemblies alias>  (126) 
nan

>  <Crystalforms alias>  (126) 
nan

$$$$
c0935d
     RDKit          3D

 13 13  0  0  0  0  0  0  0  0999 V2000
   -1.3490   17.1220   -5.1330 O   0  0  0  0  0  0  0  0  0  0  0  0
   -1.4860   16.0360   -5.6930 C   0  0  0  0  0  0  0  0  0  0  0  0
   -2.8720   15.4450   -5.8090 C   0  0  0  0  0  0  0  0  0  0  0  0
   -2.7920   14.1920   -6.4530 O   0  0  0  0  0  0  0  0  0  0  0  0
   -4.0800   13.6560   -6.7500 C   0  0  0  0  0  0  0  0  0  0  0  0
   -0.4590   15.3160   -6.2090 N   0  0  0  0  0  0  0  0  0  0  0  0
    0.9050   15.7140   -6.3240 C   0  0  0  0  0  0  0  0  0  0  0  0
    1.6660   15.4170   -7.4520 C   0  0  0  0  0  0  0  0  0  0  0  0
    2.9790   15.8480   -7.5490 C   0  0  0  0  0  0  0  0  0  0  0  0
    3.5450   16.5870   -6.5150 C   0  0  0  0  0  0  0  0  0  0  0  0
    4.8450   17.0140   -6.5890 O   0  0  0  0  0  0  0  0  0  0  0  0
    2.7930   16.8860   -5.3900 C   0  0  0  0  0  0  0  0  0  0  0  0
    1.4860   16.4450   -5.2910 C   0  0  0  0  0  0  0  0  0  0  0  0
  5  4  1  0
  4  3  1  0
  3  2  1  0
  2  1  2  0
  6  2  1  0
  7  6  1  0
  7 13  2  0
 13 12  1  0
 12 10  2  0
 11 10  1  0
 10  9  1  0
  9  8  2  0
  8  7  1  0
M  END
>  <id>  (127) 
5915

>  <inchikey>  (127) 
NSZUGQROUUTGGI-UHFFFAOYSA-N

>  <alias>  (127) 
c0935d

>  <smiles>  (127) 
COCC(=O)Nc1ccc(O)cc1

>  <path>  (127) 
/opt/xchem-fragalysis-2/maxwin/CHIKV_Mac_20240920/aligned_files/c0935d/c0935d_hippo.pdb

>  <compound>  (127) 
NSZUGQROUUTGGI-UHFFFAOYSA-N

>  <target>  (127) 
CHIKV_Mac

>  <tags>  (127) 
['[Other] ignore', 'hits']

>  <reference>  (127) 
None

>  <exports>  (127) 
['/opt/xchem-fragalysis-2/maxwin/CHIKV_HIPPO/web_resources/hit_poses.sdf', '/opt/xchem-fragalysis-2/maxwin/CHIKV_HIPPO/web/web_resources/hit_poses.sdf', '/opt/xchem-fragalysis-2/maxwin/CHIKV_HIPPO/web2/web_resources/hit_poses.sdf']

>  <observation_longname>  (127) 
CHIKV_MacB-x0935_D_304_1_CHIKV_MacB-x0692+D+304+1

>  <ConformerSites alias>  (127) 
2a - c0692/D/304

>  <CanonSites alias>  (127) 
2 - c0692/D/304/1

>  <CrystalformSites alias>  (127) 
F1b - c0692/D/304

>  <Quatassemblies alias>  (127) 
A1 - monomer

>  <Crystalforms alias>  (127) 
F1 - P31-4fold-NCS

$$$$
c0935a
     RDKit          3D

 13 13  0  0  0  0  0  0  0  0999 V2000
   17.1320   12.5820   11.8250 O   0  0  0  0  0  0  0  0  0  0  0  0
   17.8890   11.8680   11.1640 C   0  0  0  0  0  0  0  0  0  0  0  0
   19.3690   12.1880   11.1030 C   0  0  0  0  0  0  0  0  0  0  0  0
   19.9770   11.3410   10.1400 O   0  0  0  0  0  0  0  0  0  0  0  0
   21.3940   11.4860   10.1340 C   0  0  0  0  0  0  0  0  0  0  0  0
   17.4830   10.7860   10.4640 N   0  0  0  0  0  0  0  0  0  0  0  0
   16.2440   10.1090   10.5670 C   0  0  0  0  0  0  0  0  0  0  0  0
   15.5290   10.0850   11.7590 C   0  0  0  0  0  0  0  0  0  0  0  0
   14.3870    9.3130   11.8750 C   0  0  0  0  0  0  0  0  0  0  0  0
   13.9430    8.5660   10.7930 C   0  0  0  0  0  0  0  0  0  0  0  0
   12.8550    7.7530   10.9150 O   0  0  0  0  0  0  0  0  0  0  0  0
   14.6310    8.6190    9.5890 C   0  0  0  0  0  0  0  0  0  0  0  0
   15.7780    9.3860    9.4800 C   0  0  0  0  0  0  0  0  0  0  0  0
  5  4  1  0
  4  3  1  0
  3  2  1  0
  2  1  2  0
  6  2  1  0
  7  6  1  0
  7 13  2  0
 13 12  1  0
 12 10  2  0
 11 10  1  0
 10  9  1  0
  9  8  2  0
  8  7  1  0
M  END
>  <id>  (128) 
5916

>  <inchikey>  (128) 
NSZUGQROUUTGGI-UHFFFAOYSA-N

>  <alias>  (128) 
c0935a

>  <smiles>  (128) 
COCC(=O)Nc1ccc(O)cc1

>  <path>  (128) 
/opt/xchem-fragalysis-2/maxwin/CHIKV_Mac_20240920/aligned_files/c0935a/c0935a_hippo.pdb

>  <compound>  (128) 
NSZUGQROUUTGGI-UHFFFAOYSA-N

>  <target>  (128) 
CHIKV_Mac

>  <tags>  (128) 
['hits', '[Other] Arg144 pocket', '[Other] fragment screen']

>  <reference>  (128) 
None

>  <exports>  (128) 
['/opt/xchem-fragalysis-2/maxwin/CHIKV_HIPPO/web_resources/hit_poses.sdf', '/opt/xchem-fragalysis-2/maxwin/CHIKV_HIPPO/web/web_resources/hit_poses.sdf', '/opt/xchem-fragalysis-2/maxwin/CHIKV_HIPPO/web2/web_resources/hit_poses.sdf']

>  <observation_longname>  (128) 
nan

>  <ConformerSites alias>  (128) 
nan

>  <CanonSites alias>  (128) 
nan

>  <CrystalformSites alias>  (128) 
nan

>  <Quatassemblies alias>  (128) 
nan

>  <Crystalforms alias>  (128) 
nan

$$$$
c1103b
     RDKit          3D

  5  5  0  0  0  0  0  0  0  0999 V2000
   18.0580    2.7980   14.6830 N   0  0  0  0  0  0  0  0  0  0  0  0
   17.0410    3.6600   14.7940 C   0  0  0  0  0  0  0  0  0  0  0  0
   17.9870    1.8240   15.5960 N   0  0  0  0  0  0  0  0  0  0  0  0
   16.9020    2.0690   16.2970 N   0  0  0  0  0  0  0  0  0  0  0  0
   16.3100    3.1860   15.8190 C   0  0  0  0  0  0  0  0  0  0  0  0
  5  2  2  0
  2  1  1  0
  3  1  1  0
  4  3  2  0
  5  4  1  0
M  END
>  <id>  (129) 
5917

>  <inchikey>  (129) 
QWENRTYMTSOGBR-UHFFFAOYSA-N

>  <alias>  (129) 
c1103b

>  <smiles>  (129) 
c1c[nH]nn1

>  <path>  (129) 
/opt/xchem-fragalysis-2/maxwin/CHIKV_Mac_20240920/aligned_files/c1103b/c1103b_hippo.pdb

>  <compound>  (129) 
QWENRTYMTSOGBR-UHFFFAOYSA-N

>  <target>  (129) 
CHIKV_Mac

>  <tags>  (129) 
['hits', '[Other] Trp148 site', '[Other] fragment screen']

>  <reference>  (129) 
None

>  <exports>  (129) 
['/opt/xchem-fragalysis-2/maxwin/CHIKV_HIPPO/web_resources/hit_poses.sdf', '/opt/xchem-fragalysis-2/maxwin/CHIKV_HIPPO/web/web_resources/hit_poses.sdf', '/opt/xchem-fragalysis-2/maxwin/CHIKV_HIPPO/web2/web_resources/hit_poses.sdf']

>  <observation_longname>  (129) 
CHIKV_MacB-x1103_C_308_1_CHIKV_MacB-x2352+C+401+1

>  <ConformerSites alias>  (129) 
1a - c2352/C/401

>  <CanonSites alias>  (129) 
1 - c2352/C/401/1

>  <CrystalformSites alias>  (129) 
F1a - c0270/A/304

>  <Quatassemblies alias>  (129) 
A1 - monomer

>  <Crystalforms alias>  (129) 
F1 - P31-4fold-NCS

$$$$
c1103c
     RDKit          3D

  5  5  0  0  0  0  0  0  0  0999 V2000
    6.3080    8.5170   17.4000 N   0  0  0  0  0  0  0  0  0  0  0  0
    5.7820    7.4990   16.7070 C   0  0  0  0  0  0  0  0  0  0  0  0
    5.4100    9.4830   17.6350 N   0  0  0  0  0  0  0  0  0  0  0  0
    4.2940    9.0930   17.0690 N   0  0  0  0  0  0  0  0  0  0  0  0
    4.4890    7.8770   16.4980 C   0  0  0  0  0  0  0  0  0  0  0  0
  5  2  2  0
  2  1  1  0
  3  1  1  0
  4  3  2  0
  5  4  1  0
M  END
>  <id>  (130) 
5918

>  <inchikey>  (130) 
QWENRTYMTSOGBR-UHFFFAOYSA-N

>  <alias>  (130) 
c1103c

>  <smiles>  (130) 
c1c[nH]nn1

>  <path>  (130) 
/opt/xchem-fragalysis-2/maxwin/CHIKV_Mac_20240920/aligned_files/c1103c/c1103c_hippo.pdb

>  <compound>  (130) 
QWENRTYMTSOGBR-UHFFFAOYSA-N

>  <target>  (130) 
CHIKV_Mac

>  <tags>  (130) 
['hits', '[Other] Ribose site', '[Other] fragment screen']

>  <reference>  (130) 
None

>  <exports>  (130) 
['/opt/xchem-fragalysis-2/maxwin/CHIKV_HIPPO/web_resources/hit_poses.sdf', '/opt/xchem-fragalysis-2/maxwin/CHIKV_HIPPO/web/web_resources/hit_poses.sdf', '/opt/xchem-fragalysis-2/maxwin/CHIKV_HIPPO/web2/web_resources/hit_poses.sdf']

>  <observation_longname>  (130) 
nan

>  <ConformerSites alias>  (130) 
nan

>  <CanonSites alias>  (130) 
nan

>  <CrystalformSites alias>  (130) 
nan

>  <Quatassemblies alias>  (130) 
nan

>  <Crystalforms alias>  (130) 
nan

$$$$
c1103a
     RDKit          3D

  5  5  0  0  0  0  0  0  0  0999 V2000
    4.5790    8.8320   17.1420 N   0  0  0  0  0  0  0  0  0  0  0  0
    4.3950    7.6450   16.5500 C   0  0  0  0  0  0  0  0  0  0  0  0
    5.8750    9.1000   17.3250 N   0  0  0  0  0  0  0  0  0  0  0  0
    6.5360    8.0690   16.8480 N   0  0  0  0  0  0  0  0  0  0  0  0
    5.6480    7.1640   16.3630 C   0  0  0  0  0  0  0  0  0  0  0  0
  5  2  2  0
  2  1  1  0
  3  1  1  0
  4  3  2  0
  5  4  1  0
M  END
>  <id>  (131) 
5919

>  <inchikey>  (131) 
QWENRTYMTSOGBR-UHFFFAOYSA-N

>  <alias>  (131) 
c1103a

>  <smiles>  (131) 
c1c[nH]nn1

>  <path>  (131) 
/opt/xchem-fragalysis-2/maxwin/CHIKV_Mac_20240920/aligned_files/c1103a/c1103a_hippo.pdb

>  <compound>  (131) 
QWENRTYMTSOGBR-UHFFFAOYSA-N

>  <target>  (131) 
CHIKV_Mac

>  <tags>  (131) 
['hits', '[Other] Ribose site', '[Other] fragment screen']

>  <reference>  (131) 
None

>  <exports>  (131) 
['/opt/xchem-fragalysis-2/maxwin/CHIKV_HIPPO/web_resources/hit_poses.sdf', '/opt/xchem-fragalysis-2/maxwin/CHIKV_HIPPO/web/web_resources/hit_poses.sdf', '/opt/xchem-fragalysis-2/maxwin/CHIKV_HIPPO/web2/web_resources/hit_poses.sdf']

>  <observation_longname>  (131) 
nan

>  <ConformerSites alias>  (131) 
nan

>  <CanonSites alias>  (131) 
nan

>  <CrystalformSites alias>  (131) 
nan

>  <Quatassemblies alias>  (131) 
nan

>  <Crystalforms alias>  (131) 
nan

$$$$
c1108a
     RDKit          3D

  7  7  0  0  0  0  0  0  0  0999 V2000
    6.0720    6.8280   15.4470 N   0  0  0  0  0  0  0  0  0  0  0  0
    5.6520    7.5060   16.5900 C   0  0  0  0  0  0  0  0  0  0  0  0
    4.7730    8.5990   16.5460 C   0  0  0  0  0  0  0  0  0  0  0  0
    4.4130    9.2870   17.6320 N   0  0  0  0  0  0  0  0  0  0  0  0
    4.9220    8.8470   18.7830 C   0  0  0  0  0  0  0  0  0  0  0  0
    5.7500    7.8160   18.9450 N   0  0  0  0  0  0  0  0  0  0  0  0
    6.1020    7.1680   17.8240 C   0  0  0  0  0  0  0  0  0  0  0  0
  2  1  1  0
  2  7  2  0
  7  6  1  0
  6  5  2  0
  5  4  1  0
  4  3  2  0
  3  2  1  0
M  END
>  <id>  (132) 
5920

>  <inchikey>  (132) 
FVLAYJRLBLHIPV-UHFFFAOYSA-N

>  <alias>  (132) 
c1108a

>  <smiles>  (132) 
Nc1cncnc1

>  <path>  (132) 
/opt/xchem-fragalysis-2/maxwin/CHIKV_Mac_20240920/aligned_files/c1108a/c1108a_hippo.pdb

>  <compound>  (132) 
FVLAYJRLBLHIPV-UHFFFAOYSA-N

>  <target>  (132) 
CHIKV_Mac

>  <tags>  (132) 
['hits', '[Other] Ribose site', '[Other] fragment screen']

>  <reference>  (132) 
None

>  <exports>  (132) 
['/opt/xchem-fragalysis-2/maxwin/CHIKV_HIPPO/web_resources/hit_poses.sdf', '/opt/xchem-fragalysis-2/maxwin/CHIKV_HIPPO/web/web_resources/hit_poses.sdf', '/opt/xchem-fragalysis-2/maxwin/CHIKV_HIPPO/web2/web_resources/hit_poses.sdf']

>  <observation_longname>  (132) 
nan

>  <ConformerSites alias>  (132) 
nan

>  <CanonSites alias>  (132) 
nan

>  <CrystalformSites alias>  (132) 
nan

>  <Quatassemblies alias>  (132) 
nan

>  <Crystalforms alias>  (132) 
nan

$$$$
c1108b
     RDKit          3D

  7  7  0  0  0  0  0  0  0  0999 V2000
    6.2420    6.8690   15.4820 N   0  0  0  0  0  0  0  0  0  0  0  0
    5.7310    7.5620   16.5990 C   0  0  0  0  0  0  0  0  0  0  0  0
    6.1640    7.2350   17.8510 C   0  0  0  0  0  0  0  0  0  0  0  0
    5.7540    7.8680   18.9630 N   0  0  0  0  0  0  0  0  0  0  0  0
    4.8990    8.8720   18.7760 C   0  0  0  0  0  0  0  0  0  0  0  0
    4.4120    9.2880   17.6140 N   0  0  0  0  0  0  0  0  0  0  0  0
    4.8170    8.6010   16.5380 C   0  0  0  0  0  0  0  0  0  0  0  0
  2  1  1  0
  2  7  2  0
  7  6  1  0
  6  5  2  0
  5  4  1  0
  4  3  2  0
  3  2  1  0
M  END
>  <id>  (133) 
5921

>  <inchikey>  (133) 
FVLAYJRLBLHIPV-UHFFFAOYSA-N

>  <alias>  (133) 
c1108b

>  <smiles>  (133) 
Nc1cncnc1

>  <path>  (133) 
/opt/xchem-fragalysis-2/maxwin/CHIKV_Mac_20240920/aligned_files/c1108b/c1108b_hippo.pdb

>  <compound>  (133) 
FVLAYJRLBLHIPV-UHFFFAOYSA-N

>  <target>  (133) 
CHIKV_Mac

>  <tags>  (133) 
['hits', '[Other] Ribose site', '[Other] fragment screen']

>  <reference>  (133) 
None

>  <exports>  (133) 
['/opt/xchem-fragalysis-2/maxwin/CHIKV_HIPPO/web_resources/hit_poses.sdf', '/opt/xchem-fragalysis-2/maxwin/CHIKV_HIPPO/web/web_resources/hit_poses.sdf', '/opt/xchem-fragalysis-2/maxwin/CHIKV_HIPPO/web2/web_resources/hit_poses.sdf']

>  <observation_longname>  (133) 
nan

>  <ConformerSites alias>  (133) 
nan

>  <CanonSites alias>  (133) 
nan

>  <CrystalformSites alias>  (133) 
nan

>  <Quatassemblies alias>  (133) 
nan

>  <Crystalforms alias>  (133) 
nan

$$$$
c1108c
     RDKit          3D

  7  7  0  0  0  0  0  0  0  0999 V2000
    9.7830    5.0140   12.3380 N   0  0  0  0  0  0  0  0  0  0  0  0
   10.7770    5.6630   12.9720 C   0  0  0  0  0  0  0  0  0  0  0  0
   12.1070    5.4710   12.6640 C   0  0  0  0  0  0  0  0  0  0  0  0
   13.0930    6.1760   13.2260 N   0  0  0  0  0  0  0  0  0  0  0  0
   12.7110    7.0920   14.1140 C   0  0  0  0  0  0  0  0  0  0  0  0
   11.4690    7.3630   14.5090 N   0  0  0  0  0  0  0  0  0  0  0  0
   10.5120    6.6260   13.9390 C   0  0  0  0  0  0  0  0  0  0  0  0
  2  1  1  0
  2  7  2  0
  7  6  1  0
  6  5  2  0
  5  4  1  0
  4  3  2  0
  3  2  1  0
M  END
>  <id>  (134) 
5922

>  <inchikey>  (134) 
FVLAYJRLBLHIPV-UHFFFAOYSA-N

>  <alias>  (134) 
c1108c

>  <smiles>  (134) 
Nc1cncnc1

>  <path>  (134) 
/opt/xchem-fragalysis-2/maxwin/CHIKV_Mac_20240920/aligned_files/c1108c/c1108c_hippo.pdb

>  <compound>  (134) 
FVLAYJRLBLHIPV-UHFFFAOYSA-N

>  <target>  (134) 
CHIKV_Mac

>  <tags>  (134) 
['hits', '[Other] Phosphate site', '[Other] fragment screen']

>  <reference>  (134) 
None

>  <exports>  (134) 
['/opt/xchem-fragalysis-2/maxwin/CHIKV_HIPPO/web_resources/hit_poses.sdf', '/opt/xchem-fragalysis-2/maxwin/CHIKV_HIPPO/web/web_resources/hit_poses.sdf', '/opt/xchem-fragalysis-2/maxwin/CHIKV_HIPPO/web2/web_resources/hit_poses.sdf']

>  <observation_longname>  (134) 
nan

>  <ConformerSites alias>  (134) 
nan

>  <CanonSites alias>  (134) 
nan

>  <CrystalformSites alias>  (134) 
nan

>  <Quatassemblies alias>  (134) 
nan

>  <Crystalforms alias>  (134) 
nan

$$$$
c1108e
     RDKit          3D

  7  7  0  0  0  0  0  0  0  0999 V2000
    6.0370    6.7470   15.5500 N   0  0  0  0  0  0  0  0  0  0  0  0
    5.6420    7.4720   16.6460 C   0  0  0  0  0  0  0  0  0  0  0  0
    4.7580    8.5480   16.5600 C   0  0  0  0  0  0  0  0  0  0  0  0
    4.4080    9.2890   17.6160 N   0  0  0  0  0  0  0  0  0  0  0  0
    4.9350    8.9060   18.7770 C   0  0  0  0  0  0  0  0  0  0  0  0
    5.7820    7.8950   18.9810 N   0  0  0  0  0  0  0  0  0  0  0  0
    6.1200    7.1910   17.8930 C   0  0  0  0  0  0  0  0  0  0  0  0
  2  1  1  0
  2  7  2  0
  7  6  1  0
  6  5  2  0
  5  4  1  0
  4  3  2  0
  3  2  1  0
M  END
>  <id>  (135) 
5923

>  <inchikey>  (135) 
FVLAYJRLBLHIPV-UHFFFAOYSA-N

>  <alias>  (135) 
c1108e

>  <smiles>  (135) 
Nc1cncnc1

>  <path>  (135) 
/opt/xchem-fragalysis-2/maxwin/CHIKV_Mac_20240920/aligned_files/c1108e/c1108e_hippo.pdb

>  <compound>  (135) 
FVLAYJRLBLHIPV-UHFFFAOYSA-N

>  <target>  (135) 
CHIKV_Mac

>  <tags>  (135) 
['hits', '[Other] Ribose site', '[Other] fragment screen']

>  <reference>  (135) 
None

>  <exports>  (135) 
['/opt/xchem-fragalysis-2/maxwin/CHIKV_HIPPO/web_resources/hit_poses.sdf', '/opt/xchem-fragalysis-2/maxwin/CHIKV_HIPPO/web/web_resources/hit_poses.sdf', '/opt/xchem-fragalysis-2/maxwin/CHIKV_HIPPO/web2/web_resources/hit_poses.sdf']

>  <observation_longname>  (135) 
nan

>  <ConformerSites alias>  (135) 
nan

>  <CanonSites alias>  (135) 
nan

>  <CrystalformSites alias>  (135) 
nan

>  <Quatassemblies alias>  (135) 
nan

>  <Crystalforms alias>  (135) 
nan

$$$$
c1108d
     RDKit          3D

  7  7  0  0  0  0  0  0  0  0999 V2000
    5.9260    6.9420   15.4840 N   0  0  0  0  0  0  0  0  0  0  0  0
    5.6960    7.7910   16.5480 C   0  0  0  0  0  0  0  0  0  0  0  0
    6.4850    7.7620   17.6930 C   0  0  0  0  0  0  0  0  0  0  0  0
    6.2590    8.5460   18.7510 N   0  0  0  0  0  0  0  0  0  0  0  0
    5.2180    9.3680   18.6420 C   0  0  0  0  0  0  0  0  0  0  0  0
    4.3990    9.5010   17.6000 N   0  0  0  0  0  0  0  0  0  0  0  0
    4.6550    8.7040   16.5600 C   0  0  0  0  0  0  0  0  0  0  0  0
  2  1  1  0
  2  7  2  0
  7  6  1  0
  6  5  2  0
  5  4  1  0
  4  3  2  0
  3  2  1  0
M  END
>  <id>  (136) 
5924

>  <inchikey>  (136) 
FVLAYJRLBLHIPV-UHFFFAOYSA-N

>  <alias>  (136) 
c1108d

>  <smiles>  (136) 
Nc1cncnc1

>  <path>  (136) 
/opt/xchem-fragalysis-2/maxwin/CHIKV_Mac_20240920/aligned_files/c1108d/c1108d_hippo.pdb

>  <compound>  (136) 
FVLAYJRLBLHIPV-UHFFFAOYSA-N

>  <target>  (136) 
CHIKV_Mac

>  <tags>  (136) 
['hits', '[Other] Ribose site', '[Other] fragment screen']

>  <reference>  (136) 
None

>  <exports>  (136) 
['/opt/xchem-fragalysis-2/maxwin/CHIKV_HIPPO/web_resources/hit_poses.sdf', '/opt/xchem-fragalysis-2/maxwin/CHIKV_HIPPO/web/web_resources/hit_poses.sdf', '/opt/xchem-fragalysis-2/maxwin/CHIKV_HIPPO/web2/web_resources/hit_poses.sdf']

>  <observation_longname>  (136) 
nan

>  <ConformerSites alias>  (136) 
nan

>  <CanonSites alias>  (136) 
nan

>  <CrystalformSites alias>  (136) 
nan

>  <Quatassemblies alias>  (136) 
nan

>  <Crystalforms alias>  (136) 
nan

$$$$
c1112a
     RDKit          3D

  7  7  0  0  0  0  0  0  0  0999 V2000
    5.1080   10.0300   17.3930 O   0  0  0  0  0  0  0  0  0  0  0  0
    5.5200    8.9850   16.9030 C   0  0  0  0  0  0  0  0  0  0  0  0
    4.6970    7.7880   16.5270 C   0  0  0  0  0  0  0  0  0  0  0  0
    5.6920    6.7930   15.9560 C   0  0  0  0  0  0  0  0  0  0  0  0
    6.8300    8.7270   16.5780 N   0  0  0  0  0  0  0  0  0  0  0  0
    7.0220    7.4960   16.0140 C   0  0  0  0  0  0  0  0  0  0  0  0
    8.1020    7.0610   15.6230 O   0  0  0  0  0  0  0  0  0  0  0  0
  7  6  2  0
  6  4  1  0
  4  3  1  0
  3  2  1  0
  2  1  2  0
  5  2  1  0
  6  5  1  0
M  END
>  <id>  (137) 
5925

>  <inchikey>  (137) 
KZNICNPSHKQLFF-UHFFFAOYSA-N

>  <alias>  (137) 
c1112a

>  <smiles>  (137) 
O=C1CCC(=O)N1

>  <path>  (137) 
/opt/xchem-fragalysis-2/maxwin/CHIKV_Mac_20240920/aligned_files/c1112a/c1112a_hippo.pdb

>  <compound>  (137) 
KZNICNPSHKQLFF-UHFFFAOYSA-N

>  <target>  (137) 
CHIKV_Mac

>  <tags>  (137) 
['hits', '[Other] Ribose site', '[Other] fragment screen']

>  <reference>  (137) 
None

>  <exports>  (137) 
['/opt/xchem-fragalysis-2/maxwin/CHIKV_HIPPO/web_resources/hit_poses.sdf', '/opt/xchem-fragalysis-2/maxwin/CHIKV_HIPPO/web/web_resources/hit_poses.sdf', '/opt/xchem-fragalysis-2/maxwin/CHIKV_HIPPO/web2/web_resources/hit_poses.sdf']

>  <observation_longname>  (137) 
nan

>  <ConformerSites alias>  (137) 
nan

>  <CanonSites alias>  (137) 
nan

>  <CrystalformSites alias>  (137) 
nan

>  <Quatassemblies alias>  (137) 
nan

>  <Crystalforms alias>  (137) 
nan

$$$$
c1112b
     RDKit          3D

  7  7  0  0  0  0  0  0  0  0999 V2000
   16.7120    2.3510   15.0120 O   0  0  0  0  0  0  0  0  0  0  0  0
   16.8320    2.9360   13.9420 C   0  0  0  0  0  0  0  0  0  0  0  0
   15.7260    3.3520   13.0130 C   0  0  0  0  0  0  0  0  0  0  0  0
   16.4210    4.1010   11.8860 C   0  0  0  0  0  0  0  0  0  0  0  0
   18.0230    3.3290   13.3920 N   0  0  0  0  0  0  0  0  0  0  0  0
   17.8860    3.9950   12.2000 C   0  0  0  0  0  0  0  0  0  0  0  0
   18.8140    4.4320   11.5270 O   0  0  0  0  0  0  0  0  0  0  0  0
  7  6  2  0
  6  4  1  0
  4  3  1  0
  3  2  1  0
  2  1  2  0
  5  2  1  0
  6  5  1  0
M  END
>  <id>  (138) 
5926

>  <inchikey>  (138) 
KZNICNPSHKQLFF-UHFFFAOYSA-N

>  <alias>  (138) 
c1112b

>  <smiles>  (138) 
O=C1CCC(=O)N1

>  <path>  (138) 
/opt/xchem-fragalysis-2/maxwin/CHIKV_Mac_20240920/aligned_files/c1112b/c1112b_hippo.pdb

>  <compound>  (138) 
KZNICNPSHKQLFF-UHFFFAOYSA-N

>  <target>  (138) 
CHIKV_Mac

>  <tags>  (138) 
['[Other] Oxyanion site', 'hits', '[Other] Trp148 site', '[Other] fragment screen']

>  <reference>  (138) 
None

>  <exports>  (138) 
['/opt/xchem-fragalysis-2/maxwin/CHIKV_HIPPO/web_resources/hit_poses.sdf', '/opt/xchem-fragalysis-2/maxwin/CHIKV_HIPPO/web/web_resources/hit_poses.sdf', '/opt/xchem-fragalysis-2/maxwin/CHIKV_HIPPO/web2/web_resources/hit_poses.sdf']

>  <observation_longname>  (138) 
nan

>  <ConformerSites alias>  (138) 
nan

>  <CanonSites alias>  (138) 
nan

>  <CrystalformSites alias>  (138) 
nan

>  <Quatassemblies alias>  (138) 
nan

>  <Crystalforms alias>  (138) 
nan

$$$$
c1112d
     RDKit          3D

  7  7  0  0  0  0  0  0  0  0999 V2000
   18.6690    4.0780   11.8740 O   0  0  0  0  0  0  0  0  0  0  0  0
   17.7800    3.6980   12.6290 C   0  0  0  0  0  0  0  0  0  0  0  0
   16.2990    3.7690   12.3830 C   0  0  0  0  0  0  0  0  0  0  0  0
   15.6660    3.1980   13.6370 C   0  0  0  0  0  0  0  0  0  0  0  0
   17.9820    3.1180   13.8540 N   0  0  0  0  0  0  0  0  0  0  0  0
   16.8210    2.7760   14.4980 C   0  0  0  0  0  0  0  0  0  0  0  0
   16.7580    2.1700   15.5650 O   0  0  0  0  0  0  0  0  0  0  0  0
  7  6  2  0
  6  4  1  0
  4  3  1  0
  3  2  1  0
  2  1  2  0
  5  2  1  0
  6  5  1  0
M  END
>  <id>  (139) 
5927

>  <inchikey>  (139) 
KZNICNPSHKQLFF-UHFFFAOYSA-N

>  <alias>  (139) 
c1112d

>  <smiles>  (139) 
O=C1CCC(=O)N1

>  <path>  (139) 
/opt/xchem-fragalysis-2/maxwin/CHIKV_Mac_20240920/aligned_files/c1112d/c1112d_hippo.pdb

>  <compound>  (139) 
KZNICNPSHKQLFF-UHFFFAOYSA-N

>  <target>  (139) 
CHIKV_Mac

>  <tags>  (139) 
['[Other] Oxyanion site', 'hits', '[Other] Trp148 site', '[Other] fragment screen']

>  <reference>  (139) 
None

>  <exports>  (139) 
['/opt/xchem-fragalysis-2/maxwin/CHIKV_HIPPO/web_resources/hit_poses.sdf', '/opt/xchem-fragalysis-2/maxwin/CHIKV_HIPPO/web/web_resources/hit_poses.sdf', '/opt/xchem-fragalysis-2/maxwin/CHIKV_HIPPO/web2/web_resources/hit_poses.sdf']

>  <observation_longname>  (139) 
nan

>  <ConformerSites alias>  (139) 
nan

>  <CanonSites alias>  (139) 
nan

>  <CrystalformSites alias>  (139) 
nan

>  <Quatassemblies alias>  (139) 
nan

>  <Crystalforms alias>  (139) 
nan

$$$$
c1112f
     RDKit          3D

  7  7  0  0  0  0  0  0  0  0999 V2000
   16.6720    2.5480   15.1150 O   0  0  0  0  0  0  0  0  0  0  0  0
   16.7920    3.0490   14.0040 C   0  0  0  0  0  0  0  0  0  0  0  0
   15.7400    3.1300   12.9330 C   0  0  0  0  0  0  0  0  0  0  0  0
   16.4390    3.7720   11.7450 C   0  0  0  0  0  0  0  0  0  0  0  0
   17.9480    3.5930   13.5100 N   0  0  0  0  0  0  0  0  0  0  0  0
   17.8450    4.0230   12.2130 C   0  0  0  0  0  0  0  0  0  0  0  0
   18.7700    4.4730   11.5480 O   0  0  0  0  0  0  0  0  0  0  0  0
  7  6  2  0
  6  4  1  0
  4  3  1  0
  3  2  1  0
  2  1  2  0
  5  2  1  0
  6  5  1  0
M  END
>  <id>  (140) 
5928

>  <inchikey>  (140) 
KZNICNPSHKQLFF-UHFFFAOYSA-N

>  <alias>  (140) 
c1112f

>  <smiles>  (140) 
O=C1CCC(=O)N1

>  <path>  (140) 
/opt/xchem-fragalysis-2/maxwin/CHIKV_Mac_20240920/aligned_files/c1112f/c1112f_hippo.pdb

>  <compound>  (140) 
KZNICNPSHKQLFF-UHFFFAOYSA-N

>  <target>  (140) 
CHIKV_Mac

>  <tags>  (140) 
['[Other] Oxyanion site', 'hits', '[Other] Trp148 site', '[Other] fragment screen']

>  <reference>  (140) 
None

>  <exports>  (140) 
['/opt/xchem-fragalysis-2/maxwin/CHIKV_HIPPO/web_resources/hit_poses.sdf', '/opt/xchem-fragalysis-2/maxwin/CHIKV_HIPPO/web/web_resources/hit_poses.sdf', '/opt/xchem-fragalysis-2/maxwin/CHIKV_HIPPO/web2/web_resources/hit_poses.sdf']

>  <observation_longname>  (140) 
nan

>  <ConformerSites alias>  (140) 
nan

>  <CanonSites alias>  (140) 
nan

>  <CrystalformSites alias>  (140) 
nan

>  <Quatassemblies alias>  (140) 
nan

>  <Crystalforms alias>  (140) 
nan

$$$$
c1112g
     RDKit          3D

  7  7  0  0  0  0  0  0  0  0999 V2000
    4.9110    9.6860   17.5080 O   0  0  0  0  0  0  0  0  0  0  0  0
    5.3750    8.7370   16.8800 C   0  0  0  0  0  0  0  0  0  0  0  0
    4.6430    7.4860   16.4860 C   0  0  0  0  0  0  0  0  0  0  0  0
    5.6860    6.6220   15.7860 C   0  0  0  0  0  0  0  0  0  0  0  0
    6.6730    8.6320   16.4390 N   0  0  0  0  0  0  0  0  0  0  0  0
    6.9430    7.4470   15.7960 C   0  0  0  0  0  0  0  0  0  0  0  0
    8.0240    7.1400   15.3000 O   0  0  0  0  0  0  0  0  0  0  0  0
  7  6  2  0
  6  4  1  0
  4  3  1  0
  3  2  1  0
  2  1  2  0
  5  2  1  0
  6  5  1  0
M  END
>  <id>  (141) 
5929

>  <inchikey>  (141) 
KZNICNPSHKQLFF-UHFFFAOYSA-N

>  <alias>  (141) 
c1112g

>  <smiles>  (141) 
O=C1CCC(=O)N1

>  <path>  (141) 
/opt/xchem-fragalysis-2/maxwin/CHIKV_Mac_20240920/aligned_files/c1112g/c1112g_hippo.pdb

>  <compound>  (141) 
KZNICNPSHKQLFF-UHFFFAOYSA-N

>  <target>  (141) 
CHIKV_Mac

>  <tags>  (141) 
['hits', '[Other] Ribose site', '[Other] fragment screen']

>  <reference>  (141) 
None

>  <exports>  (141) 
['/opt/xchem-fragalysis-2/maxwin/CHIKV_HIPPO/web_resources/hit_poses.sdf', '/opt/xchem-fragalysis-2/maxwin/CHIKV_HIPPO/web/web_resources/hit_poses.sdf', '/opt/xchem-fragalysis-2/maxwin/CHIKV_HIPPO/web2/web_resources/hit_poses.sdf']

>  <observation_longname>  (141) 
nan

>  <ConformerSites alias>  (141) 
nan

>  <CanonSites alias>  (141) 
nan

>  <CrystalformSites alias>  (141) 
nan

>  <Quatassemblies alias>  (141) 
nan

>  <Crystalforms alias>  (141) 
nan

$$$$
c1112c
     RDKit          3D

  7  7  0  0  0  0  0  0  0  0999 V2000
    4.9120    9.8430   17.4030 O   0  0  0  0  0  0  0  0  0  0  0  0
    5.3460    8.8430   16.8390 C   0  0  0  0  0  0  0  0  0  0  0  0
    4.5560    7.6370   16.4200 C   0  0  0  0  0  0  0  0  0  0  0  0
    5.5820    6.6770   15.8450 C   0  0  0  0  0  0  0  0  0  0  0  0
    6.6620    8.6220   16.5330 N   0  0  0  0  0  0  0  0  0  0  0  0
    6.8950    7.3980   15.9630 C   0  0  0  0  0  0  0  0  0  0  0  0
    7.9940    6.9840   15.6000 O   0  0  0  0  0  0  0  0  0  0  0  0
  7  6  2  0
  6  4  1  0
  4  3  1  0
  3  2  1  0
  2  1  2  0
  5  2  1  0
  6  5  1  0
M  END
>  <id>  (142) 
5930

>  <inchikey>  (142) 
KZNICNPSHKQLFF-UHFFFAOYSA-N

>  <alias>  (142) 
c1112c

>  <smiles>  (142) 
O=C1CCC(=O)N1

>  <path>  (142) 
/opt/xchem-fragalysis-2/maxwin/CHIKV_Mac_20240920/aligned_files/c1112c/c1112c_hippo.pdb

>  <compound>  (142) 
KZNICNPSHKQLFF-UHFFFAOYSA-N

>  <target>  (142) 
CHIKV_Mac

>  <tags>  (142) 
['hits', '[Other] Ribose site', '[Other] fragment screen']

>  <reference>  (142) 
None

>  <exports>  (142) 
['/opt/xchem-fragalysis-2/maxwin/CHIKV_HIPPO/web_resources/hit_poses.sdf', '/opt/xchem-fragalysis-2/maxwin/CHIKV_HIPPO/web/web_resources/hit_poses.sdf', '/opt/xchem-fragalysis-2/maxwin/CHIKV_HIPPO/web2/web_resources/hit_poses.sdf']

>  <observation_longname>  (142) 
nan

>  <ConformerSites alias>  (142) 
nan

>  <CanonSites alias>  (142) 
nan

>  <CrystalformSites alias>  (142) 
nan

>  <Quatassemblies alias>  (142) 
nan

>  <Crystalforms alias>  (142) 
nan

$$$$
c1112e
     RDKit          3D

  7  7  0  0  0  0  0  0  0  0999 V2000
    5.0810   10.0010   17.3890 O   0  0  0  0  0  0  0  0  0  0  0  0
    5.5390    8.9930   16.8610 C   0  0  0  0  0  0  0  0  0  0  0  0
    4.7670    7.7770   16.4260 C   0  0  0  0  0  0  0  0  0  0  0  0
    5.8160    6.8280   15.8650 C   0  0  0  0  0  0  0  0  0  0  0  0
    6.8630    8.7890   16.5690 N   0  0  0  0  0  0  0  0  0  0  0  0
    7.1180    7.5740   15.9850 C   0  0  0  0  0  0  0  0  0  0  0  0
    8.2270    7.1850   15.6200 O   0  0  0  0  0  0  0  0  0  0  0  0
  7  6  2  0
  6  4  1  0
  4  3  1  0
  3  2  1  0
  2  1  2  0
  5  2  1  0
  6  5  1  0
M  END
>  <id>  (143) 
5931

>  <inchikey>  (143) 
KZNICNPSHKQLFF-UHFFFAOYSA-N

>  <alias>  (143) 
c1112e

>  <smiles>  (143) 
O=C1CCC(=O)N1

>  <path>  (143) 
/opt/xchem-fragalysis-2/maxwin/CHIKV_Mac_20240920/aligned_files/c1112e/c1112e_hippo.pdb

>  <compound>  (143) 
KZNICNPSHKQLFF-UHFFFAOYSA-N

>  <target>  (143) 
CHIKV_Mac

>  <tags>  (143) 
['hits', '[Other] Ribose site', '[Other] fragment screen']

>  <reference>  (143) 
None

>  <exports>  (143) 
['/opt/xchem-fragalysis-2/maxwin/CHIKV_HIPPO/web_resources/hit_poses.sdf', '/opt/xchem-fragalysis-2/maxwin/CHIKV_HIPPO/web/web_resources/hit_poses.sdf', '/opt/xchem-fragalysis-2/maxwin/CHIKV_HIPPO/web2/web_resources/hit_poses.sdf']

>  <observation_longname>  (143) 
nan

>  <ConformerSites alias>  (143) 
nan

>  <CanonSites alias>  (143) 
nan

>  <CrystalformSites alias>  (143) 
nan

>  <Quatassemblies alias>  (143) 
nan

>  <Crystalforms alias>  (143) 
nan

$$$$
c1114b
     RDKit          3D

  6  6  0  0  0  0  0  0  0  0999 V2000
    5.1960    9.5280   17.6680 O   0  0  0  0  0  0  0  0  0  0  0  0
    5.5920    8.5890   16.9740 C   0  0  0  0  0  0  0  0  0  0  0  0
    6.8290    8.4420   16.5350 N   0  0  0  0  0  0  0  0  0  0  0  0
    7.0510    7.2390   15.7370 C   0  0  0  0  0  0  0  0  0  0  0  0
    5.7590    6.4540   15.9200 C   0  0  0  0  0  0  0  0  0  0  0  0
    4.7500    7.4580   16.4590 C   0  0  0  0  0  0  0  0  0  0  0  0
  2  1  2  0
  2  6  1  0
  6  5  1  0
  5  4  1  0
  4  3  1  0
  3  2  1  0
M  END
>  <id>  (144) 
5932

>  <inchikey>  (144) 
HNJBEVLQSNELDL-UHFFFAOYSA-N

>  <alias>  (144) 
c1114b

>  <smiles>  (144) 
O=C1CCCN1

>  <path>  (144) 
/opt/xchem-fragalysis-2/maxwin/CHIKV_Mac_20240920/aligned_files/c1114b/c1114b_hippo.pdb

>  <compound>  (144) 
HNJBEVLQSNELDL-UHFFFAOYSA-N

>  <target>  (144) 
CHIKV_Mac

>  <tags>  (144) 
['hits', '[Other] Ribose site', '[Other] fragment screen']

>  <reference>  (144) 
None

>  <exports>  (144) 
['/opt/xchem-fragalysis-2/maxwin/CHIKV_HIPPO/web_resources/hit_poses.sdf', '/opt/xchem-fragalysis-2/maxwin/CHIKV_HIPPO/web/web_resources/hit_poses.sdf', '/opt/xchem-fragalysis-2/maxwin/CHIKV_HIPPO/web2/web_resources/hit_poses.sdf']

>  <observation_longname>  (144) 
nan

>  <ConformerSites alias>  (144) 
nan

>  <CanonSites alias>  (144) 
nan

>  <CrystalformSites alias>  (144) 
nan

>  <Quatassemblies alias>  (144) 
nan

>  <Crystalforms alias>  (144) 
nan

$$$$
c1114c
     RDKit          3D

  6  6  0  0  0  0  0  0  0  0999 V2000
   10.9860    7.8820   14.8650 O   0  0  0  0  0  0  0  0  0  0  0  0
   11.2580    6.9370   14.1340 C   0  0  0  0  0  0  0  0  0  0  0  0
   10.3690    6.2210   13.4610 N   0  0  0  0  0  0  0  0  0  0  0  0
   10.9350    5.0840   12.7450 C   0  0  0  0  0  0  0  0  0  0  0  0
   12.3740    5.0390   13.2390 C   0  0  0  0  0  0  0  0  0  0  0  0
   12.6300    6.3950   13.8660 C   0  0  0  0  0  0  0  0  0  0  0  0
  2  1  2  0
  2  6  1  0
  6  5  1  0
  5  4  1  0
  4  3  1  0
  3  2  1  0
M  END
>  <id>  (145) 
5933

>  <inchikey>  (145) 
HNJBEVLQSNELDL-UHFFFAOYSA-N

>  <alias>  (145) 
c1114c

>  <smiles>  (145) 
O=C1CCCN1

>  <path>  (145) 
/opt/xchem-fragalysis-2/maxwin/CHIKV_Mac_20240920/aligned_files/c1114c/c1114c_hippo.pdb

>  <compound>  (145) 
HNJBEVLQSNELDL-UHFFFAOYSA-N

>  <target>  (145) 
CHIKV_Mac

>  <tags>  (145) 
['hits', '[Other] Phosphate site', '[Other] fragment screen']

>  <reference>  (145) 
None

>  <exports>  (145) 
['/opt/xchem-fragalysis-2/maxwin/CHIKV_HIPPO/web_resources/hit_poses.sdf', '/opt/xchem-fragalysis-2/maxwin/CHIKV_HIPPO/web/web_resources/hit_poses.sdf', '/opt/xchem-fragalysis-2/maxwin/CHIKV_HIPPO/web2/web_resources/hit_poses.sdf']

>  <observation_longname>  (145) 
nan

>  <ConformerSites alias>  (145) 
nan

>  <CanonSites alias>  (145) 
nan

>  <CrystalformSites alias>  (145) 
nan

>  <Quatassemblies alias>  (145) 
nan

>  <Crystalforms alias>  (145) 
nan

$$$$
c1114d
     RDKit          3D

  6  6  0  0  0  0  0  0  0  0999 V2000
    5.1590    9.7050   17.7960 O   0  0  0  0  0  0  0  0  0  0  0  0
    5.5980    8.8090   17.0840 C   0  0  0  0  0  0  0  0  0  0  0  0
    6.8770    8.6250   16.8020 N   0  0  0  0  0  0  0  0  0  0  0  0
    7.1310    7.5630   15.8320 C   0  0  0  0  0  0  0  0  0  0  0  0
    5.8170    6.8060   15.7920 C   0  0  0  0  0  0  0  0  0  0  0  0
    4.7850    7.7460   16.3990 C   0  0  0  0  0  0  0  0  0  0  0  0
  2  1  2  0
  2  6  1  0
  6  5  1  0
  5  4  1  0
  4  3  1  0
  3  2  1  0
M  END
>  <id>  (146) 
5934

>  <inchikey>  (146) 
HNJBEVLQSNELDL-UHFFFAOYSA-N

>  <alias>  (146) 
c1114d

>  <smiles>  (146) 
O=C1CCCN1

>  <path>  (146) 
/opt/xchem-fragalysis-2/maxwin/CHIKV_Mac_20240920/aligned_files/c1114d/c1114d_hippo.pdb

>  <compound>  (146) 
HNJBEVLQSNELDL-UHFFFAOYSA-N

>  <target>  (146) 
CHIKV_Mac

>  <tags>  (146) 
['hits', '[Other] Ribose site', '[Other] fragment screen']

>  <reference>  (146) 
None

>  <exports>  (146) 
['/opt/xchem-fragalysis-2/maxwin/CHIKV_HIPPO/web_resources/hit_poses.sdf', '/opt/xchem-fragalysis-2/maxwin/CHIKV_HIPPO/web/web_resources/hit_poses.sdf', '/opt/xchem-fragalysis-2/maxwin/CHIKV_HIPPO/web2/web_resources/hit_poses.sdf']

>  <observation_longname>  (146) 
nan

>  <ConformerSites alias>  (146) 
nan

>  <CanonSites alias>  (146) 
nan

>  <CrystalformSites alias>  (146) 
nan

>  <Quatassemblies alias>  (146) 
nan

>  <Crystalforms alias>  (146) 
nan

$$$$
c1114e
     RDKit          3D

  6  6  0  0  0  0  0  0  0  0999 V2000
    5.2530    9.6320   17.6010 O   0  0  0  0  0  0  0  0  0  0  0  0
    5.6530    8.6890   16.9150 C   0  0  0  0  0  0  0  0  0  0  0  0
    6.9180    8.4720   16.5820 N   0  0  0  0  0  0  0  0  0  0  0  0
    7.1250    7.3040   15.7330 C   0  0  0  0  0  0  0  0  0  0  0  0
    5.8020    6.5560   15.8420 C   0  0  0  0  0  0  0  0  0  0  0  0
    4.8050    7.5920   16.3420 C   0  0  0  0  0  0  0  0  0  0  0  0
  2  1  2  0
  2  6  1  0
  6  5  1  0
  5  4  1  0
  4  3  1  0
  3  2  1  0
M  END
>  <id>  (147) 
5935

>  <inchikey>  (147) 
HNJBEVLQSNELDL-UHFFFAOYSA-N

>  <alias>  (147) 
c1114e

>  <smiles>  (147) 
O=C1CCCN1

>  <path>  (147) 
/opt/xchem-fragalysis-2/maxwin/CHIKV_Mac_20240920/aligned_files/c1114e/c1114e_hippo.pdb

>  <compound>  (147) 
HNJBEVLQSNELDL-UHFFFAOYSA-N

>  <target>  (147) 
CHIKV_Mac

>  <tags>  (147) 
['hits', '[Other] Ribose site', '[Other] fragment screen']

>  <reference>  (147) 
None

>  <exports>  (147) 
['/opt/xchem-fragalysis-2/maxwin/CHIKV_HIPPO/web_resources/hit_poses.sdf', '/opt/xchem-fragalysis-2/maxwin/CHIKV_HIPPO/web/web_resources/hit_poses.sdf', '/opt/xchem-fragalysis-2/maxwin/CHIKV_HIPPO/web2/web_resources/hit_poses.sdf']

>  <observation_longname>  (147) 
nan

>  <ConformerSites alias>  (147) 
nan

>  <CanonSites alias>  (147) 
nan

>  <CrystalformSites alias>  (147) 
nan

>  <Quatassemblies alias>  (147) 
nan

>  <Crystalforms alias>  (147) 
nan

$$$$
c1114a
     RDKit          3D

  6  6  0  0  0  0  0  0  0  0999 V2000
    5.3670    9.7100   17.7220 O   0  0  0  0  0  0  0  0  0  0  0  0
    5.7170    8.7370   17.0560 C   0  0  0  0  0  0  0  0  0  0  0  0
    6.9570    8.5080   16.6450 N   0  0  0  0  0  0  0  0  0  0  0  0
    7.0850    7.3850   15.7310 C   0  0  0  0  0  0  0  0  0  0  0  0
    5.7610    6.6450   15.8990 C   0  0  0  0  0  0  0  0  0  0  0  0
    4.8100    7.6590   16.5080 C   0  0  0  0  0  0  0  0  0  0  0  0
  2  1  2  0
  2  6  1  0
  6  5  1  0
  5  4  1  0
  4  3  1  0
  3  2  1  0
M  END
>  <id>  (148) 
5936

>  <inchikey>  (148) 
HNJBEVLQSNELDL-UHFFFAOYSA-N

>  <alias>  (148) 
c1114a

>  <smiles>  (148) 
O=C1CCCN1

>  <path>  (148) 
/opt/xchem-fragalysis-2/maxwin/CHIKV_Mac_20240920/aligned_files/c1114a/c1114a_hippo.pdb

>  <compound>  (148) 
HNJBEVLQSNELDL-UHFFFAOYSA-N

>  <target>  (148) 
CHIKV_Mac

>  <tags>  (148) 
['hits', '[Other] Ribose site', '[Other] fragment screen']

>  <reference>  (148) 
None

>  <exports>  (148) 
['/opt/xchem-fragalysis-2/maxwin/CHIKV_HIPPO/web_resources/hit_poses.sdf', '/opt/xchem-fragalysis-2/maxwin/CHIKV_HIPPO/web/web_resources/hit_poses.sdf', '/opt/xchem-fragalysis-2/maxwin/CHIKV_HIPPO/web2/web_resources/hit_poses.sdf']

>  <observation_longname>  (148) 
nan

>  <ConformerSites alias>  (148) 
nan

>  <CanonSites alias>  (148) 
nan

>  <CrystalformSites alias>  (148) 
nan

>  <Quatassemblies alias>  (148) 
nan

>  <Crystalforms alias>  (148) 
nan

$$$$
c1116c
     RDKit          3D

  7  7  0  0  0  0  0  0  0  0999 V2000
   22.3230   12.0220   11.6500 N   0  0  0  0  0  0  0  0  0  0  0  0
   20.9820   12.0600   11.5850 C   0  0  0  0  0  0  0  0  0  0  0  0
   20.3790   11.2510   10.6850 N   0  0  0  0  0  0  0  0  0  0  0  0
   19.0390   11.2780   10.6150 C   0  0  0  0  0  0  0  0  0  0  0  0
   18.2450   12.0900   11.3980 C   0  0  0  0  0  0  0  0  0  0  0  0
   18.8590   12.9120   12.3140 C   0  0  0  0  0  0  0  0  0  0  0  0
   20.2380   12.9120   12.4310 C   0  0  0  0  0  0  0  0  0  0  0  0
  2  1  1  0
  2  7  2  0
  7  6  1  0
  6  5  2  0
  5  4  1  0
  4  3  2  0
  3  2  1  0
M  END
>  <id>  (149) 
5937

>  <inchikey>  (149) 
ICSNLGPSRYBMBD-UHFFFAOYSA-N

>  <alias>  (149) 
c1116c

>  <smiles>  (149) 
Nc1ccccn1

>  <path>  (149) 
/opt/xchem-fragalysis-2/maxwin/CHIKV_Mac_20240920/aligned_files/c1116c/c1116c_hippo.pdb

>  <compound>  (149) 
ICSNLGPSRYBMBD-UHFFFAOYSA-N

>  <target>  (149) 
CHIKV_Mac

>  <tags>  (149) 
['hits', '[Other] Arg144 pocket', '[Other] fragment screen']

>  <reference>  (149) 
None

>  <exports>  (149) 
['/opt/xchem-fragalysis-2/maxwin/CHIKV_HIPPO/web_resources/hit_poses.sdf', '/opt/xchem-fragalysis-2/maxwin/CHIKV_HIPPO/web/web_resources/hit_poses.sdf', '/opt/xchem-fragalysis-2/maxwin/CHIKV_HIPPO/web2/web_resources/hit_poses.sdf']

>  <observation_longname>  (149) 
nan

>  <ConformerSites alias>  (149) 
nan

>  <CanonSites alias>  (149) 
nan

>  <CrystalformSites alias>  (149) 
nan

>  <Quatassemblies alias>  (149) 
nan

>  <Crystalforms alias>  (149) 
nan

$$$$
c1116d
     RDKit          3D

  7  7  0  0  0  0  0  0  0  0999 V2000
   20.8920   11.1230    9.9900 N   0  0  0  0  0  0  0  0  0  0  0  0
   20.1880   11.9610   10.7680 C   0  0  0  0  0  0  0  0  0  0  0  0
   20.8400   13.0280   11.2830 N   0  0  0  0  0  0  0  0  0  0  0  0
   20.1710   13.8370   12.1190 C   0  0  0  0  0  0  0  0  0  0  0  0
   18.8530   13.6500   12.4760 C   0  0  0  0  0  0  0  0  0  0  0  0
   18.1790   12.5730   11.9400 C   0  0  0  0  0  0  0  0  0  0  0  0
   18.8250   11.7100   11.0720 C   0  0  0  0  0  0  0  0  0  0  0  0
  2  1  1  0
  2  7  2  0
  7  6  1  0
  6  5  2  0
  5  4  1  0
  4  3  2  0
  3  2  1  0
M  END
>  <id>  (150) 
5938

>  <inchikey>  (150) 
ICSNLGPSRYBMBD-UHFFFAOYSA-N

>  <alias>  (150) 
c1116d

>  <smiles>  (150) 
Nc1ccccn1

>  <path>  (150) 
/opt/xchem-fragalysis-2/maxwin/CHIKV_Mac_20240920/aligned_files/c1116d/c1116d_hippo.pdb

>  <compound>  (150) 
ICSNLGPSRYBMBD-UHFFFAOYSA-N

>  <target>  (150) 
CHIKV_Mac

>  <tags>  (150) 
['hits', '[Other] Arg144 pocket', '[Other] fragment screen']

>  <reference>  (150) 
None

>  <exports>  (150) 
['/opt/xchem-fragalysis-2/maxwin/CHIKV_HIPPO/web_resources/hit_poses.sdf', '/opt/xchem-fragalysis-2/maxwin/CHIKV_HIPPO/web/web_resources/hit_poses.sdf', '/opt/xchem-fragalysis-2/maxwin/CHIKV_HIPPO/web2/web_resources/hit_poses.sdf']

>  <observation_longname>  (150) 
nan

>  <ConformerSites alias>  (150) 
nan

>  <CanonSites alias>  (150) 
nan

>  <CrystalformSites alias>  (150) 
nan

>  <Quatassemblies alias>  (150) 
nan

>  <Crystalforms alias>  (150) 
nan

$$$$
c1116e
     RDKit          3D

  7  7  0  0  0  0  0  0  0  0999 V2000
   14.4140   12.9210   11.5140 N   0  0  0  0  0  0  0  0  0  0  0  0
   14.6590   11.6220   11.2760 C   0  0  0  0  0  0  0  0  0  0  0  0
   14.8170   11.2440    9.9880 N   0  0  0  0  0  0  0  0  0  0  0  0
   15.0700    9.9500    9.7350 C   0  0  0  0  0  0  0  0  0  0  0  0
   15.1560    8.9780   10.7120 C   0  0  0  0  0  0  0  0  0  0  0  0
   14.9890    9.3590   12.0270 C   0  0  0  0  0  0  0  0  0  0  0  0
   14.7490   10.6880   12.3400 C   0  0  0  0  0  0  0  0  0  0  0  0
  2  1  1  0
  2  7  2  0
  7  6  1  0
  6  5  2  0
  5  4  1  0
  4  3  2  0
  3  2  1  0
M  END
>  <id>  (151) 
5939

>  <inchikey>  (151) 
ICSNLGPSRYBMBD-UHFFFAOYSA-N

>  <alias>  (151) 
c1116e

>  <smiles>  (151) 
Nc1ccccn1

>  <path>  (151) 
/opt/xchem-fragalysis-2/maxwin/CHIKV_Mac_20240920/aligned_files/c1116e/c1116e_hippo.pdb

>  <compound>  (151) 
ICSNLGPSRYBMBD-UHFFFAOYSA-N

>  <target>  (151) 
CHIKV_Mac

>  <tags>  (151) 
['[Other] Adenine site', 'hits', '[Other] fragment screen']

>  <reference>  (151) 
None

>  <exports>  (151) 
['/opt/xchem-fragalysis-2/maxwin/CHIKV_HIPPO/web_resources/hit_poses.sdf', '/opt/xchem-fragalysis-2/maxwin/CHIKV_HIPPO/web/web_resources/hit_poses.sdf', '/opt/xchem-fragalysis-2/maxwin/CHIKV_HIPPO/web2/web_resources/hit_poses.sdf']

>  <observation_longname>  (151) 
nan

>  <ConformerSites alias>  (151) 
nan

>  <CanonSites alias>  (151) 
nan

>  <CrystalformSites alias>  (151) 
nan

>  <Quatassemblies alias>  (151) 
nan

>  <Crystalforms alias>  (151) 
nan

$$$$
c1116a
     RDKit          3D

  7  7  0  0  0  0  0  0  0  0999 V2000
   14.1990   12.9250   11.5420 N   0  0  0  0  0  0  0  0  0  0  0  0
   14.4690   11.6360   11.2580 C   0  0  0  0  0  0  0  0  0  0  0  0
   14.5920   11.2940    9.9530 N   0  0  0  0  0  0  0  0  0  0  0  0
   14.8370   10.0070    9.6570 C   0  0  0  0  0  0  0  0  0  0  0  0
   14.9590    9.0100   10.6070 C   0  0  0  0  0  0  0  0  0  0  0  0
   14.8360    9.3580   11.9350 C   0  0  0  0  0  0  0  0  0  0  0  0
   14.6010   10.6780   12.2890 C   0  0  0  0  0  0  0  0  0  0  0  0
  2  1  1  0
  2  7  2  0
  7  6  1  0
  6  5  2  0
  5  4  1  0
  4  3  2  0
  3  2  1  0
M  END
>  <id>  (152) 
5940

>  <inchikey>  (152) 
ICSNLGPSRYBMBD-UHFFFAOYSA-N

>  <alias>  (152) 
c1116a

>  <smiles>  (152) 
Nc1ccccn1

>  <path>  (152) 
/opt/xchem-fragalysis-2/maxwin/CHIKV_Mac_20240920/aligned_files/c1116a/c1116a_hippo.pdb

>  <compound>  (152) 
ICSNLGPSRYBMBD-UHFFFAOYSA-N

>  <target>  (152) 
CHIKV_Mac

>  <tags>  (152) 
['[Other] Adenine site', 'hits', '[Other] fragment screen']

>  <reference>  (152) 
None

>  <exports>  (152) 
['/opt/xchem-fragalysis-2/maxwin/CHIKV_HIPPO/web_resources/hit_poses.sdf', '/opt/xchem-fragalysis-2/maxwin/CHIKV_HIPPO/web/web_resources/hit_poses.sdf', '/opt/xchem-fragalysis-2/maxwin/CHIKV_HIPPO/web2/web_resources/hit_poses.sdf']

>  <observation_longname>  (152) 
nan

>  <ConformerSites alias>  (152) 
nan

>  <CanonSites alias>  (152) 
nan

>  <CrystalformSites alias>  (152) 
nan

>  <Quatassemblies alias>  (152) 
nan

>  <Crystalforms alias>  (152) 
nan

$$$$
c1116b
     RDKit          3D

  7  7  0  0  0  0  0  0  0  0999 V2000
   15.5310    7.9280   10.7830 N   0  0  0  0  0  0  0  0  0  0  0  0
   15.2860    9.2400   10.9440 C   0  0  0  0  0  0  0  0  0  0  0  0
   15.1700    9.9870    9.8260 N   0  0  0  0  0  0  0  0  0  0  0  0
   14.7950   11.2650    9.9610 C   0  0  0  0  0  0  0  0  0  0  0  0
   14.5550   11.8750   11.1800 C   0  0  0  0  0  0  0  0  0  0  0  0
   14.7140   11.1250   12.3220 C   0  0  0  0  0  0  0  0  0  0  0  0
   15.0810    9.7940   12.2330 C   0  0  0  0  0  0  0  0  0  0  0  0
  2  1  1  0
  2  7  2  0
  7  6  1  0
  6  5  2  0
  5  4  1  0
  4  3  2  0
  3  2  1  0
M  END
>  <id>  (153) 
5941

>  <inchikey>  (153) 
ICSNLGPSRYBMBD-UHFFFAOYSA-N

>  <alias>  (153) 
c1116b

>  <smiles>  (153) 
Nc1ccccn1

>  <path>  (153) 
/opt/xchem-fragalysis-2/maxwin/CHIKV_Mac_20240920/aligned_files/c1116b/c1116b_hippo.pdb

>  <compound>  (153) 
ICSNLGPSRYBMBD-UHFFFAOYSA-N

>  <target>  (153) 
CHIKV_Mac

>  <tags>  (153) 
['[Other] Adenine site', 'hits', '[Other] fragment screen']

>  <reference>  (153) 
None

>  <exports>  (153) 
['/opt/xchem-fragalysis-2/maxwin/CHIKV_HIPPO/web_resources/hit_poses.sdf', '/opt/xchem-fragalysis-2/maxwin/CHIKV_HIPPO/web/web_resources/hit_poses.sdf', '/opt/xchem-fragalysis-2/maxwin/CHIKV_HIPPO/web2/web_resources/hit_poses.sdf']

>  <observation_longname>  (153) 
nan

>  <ConformerSites alias>  (153) 
nan

>  <CanonSites alias>  (153) 
nan

>  <CrystalformSites alias>  (153) 
nan

>  <Quatassemblies alias>  (153) 
nan

>  <Crystalforms alias>  (153) 
nan

$$$$
c1118b
     RDKit          3D

  7  7  0  0  0  0  0  0  0  0999 V2000
   14.4180   11.4530    9.9480 O   0  0  0  0  0  0  0  0  0  0  0  0
   14.5120   11.7190   11.2680 C   0  0  0  0  0  0  0  0  0  0  0  0
   14.4960   13.0200   11.6570 N   0  0  0  0  0  0  0  0  0  0  0  0
   14.5140   13.2660   12.9770 C   0  0  0  0  0  0  0  0  0  0  0  0
   14.5390   12.2830   13.9410 C   0  0  0  0  0  0  0  0  0  0  0  0
   14.5670   10.9710   13.5330 C   0  0  0  0  0  0  0  0  0  0  0  0
   14.5600   10.6660   12.1810 C   0  0  0  0  0  0  0  0  0  0  0  0
  2  1  1  0
  2  7  2  0
  7  6  1  0
  6  5  2  0
  5  4  1  0
  4  3  2  0
  3  2  1  0
M  END
>  <id>  (154) 
5942

>  <inchikey>  (154) 
UBQKCCHYAOITMY-UHFFFAOYSA-N

>  <alias>  (154) 
c1118b

>  <smiles>  (154) 
Oc1ccccn1

>  <path>  (154) 
/opt/xchem-fragalysis-2/maxwin/CHIKV_Mac_20240920/aligned_files/c1118b/c1118b_hippo.pdb

>  <compound>  (154) 
UBQKCCHYAOITMY-UHFFFAOYSA-N

>  <target>  (154) 
CHIKV_Mac

>  <tags>  (154) 
['[Other] Adenine site', 'hits', '[Other] fragment screen']

>  <reference>  (154) 
None

>  <exports>  (154) 
['/opt/xchem-fragalysis-2/maxwin/CHIKV_HIPPO/web_resources/hit_poses.sdf', '/opt/xchem-fragalysis-2/maxwin/CHIKV_HIPPO/web/web_resources/hit_poses.sdf', '/opt/xchem-fragalysis-2/maxwin/CHIKV_HIPPO/web2/web_resources/hit_poses.sdf']

>  <observation_longname>  (154) 
nan

>  <ConformerSites alias>  (154) 
nan

>  <CanonSites alias>  (154) 
nan

>  <CrystalformSites alias>  (154) 
nan

>  <Quatassemblies alias>  (154) 
nan

>  <Crystalforms alias>  (154) 
nan

$$$$
c1118c
     RDKit          3D

  7  7  0  0  0  0  0  0  0  0999 V2000
   14.4550   11.3170   10.2330 O   0  0  0  0  0  0  0  0  0  0  0  0
   14.4820   11.5590   11.5620 C   0  0  0  0  0  0  0  0  0  0  0  0
   14.4360   12.8520   11.9590 N   0  0  0  0  0  0  0  0  0  0  0  0
   14.4960   13.1000   13.2780 C   0  0  0  0  0  0  0  0  0  0  0  0
   14.5820   12.1170   14.2380 C   0  0  0  0  0  0  0  0  0  0  0  0
   14.6130   10.8060   13.8220 C   0  0  0  0  0  0  0  0  0  0  0  0
   14.5670   10.5040   12.4710 C   0  0  0  0  0  0  0  0  0  0  0  0
  2  1  1  0
  2  7  2  0
  7  6  1  0
  6  5  2  0
  5  4  1  0
  4  3  2  0
  3  2  1  0
M  END
>  <id>  (155) 
5943

>  <inchikey>  (155) 
UBQKCCHYAOITMY-UHFFFAOYSA-N

>  <alias>  (155) 
c1118c

>  <smiles>  (155) 
Oc1ccccn1

>  <path>  (155) 
/opt/xchem-fragalysis-2/maxwin/CHIKV_Mac_20240920/aligned_files/c1118c/c1118c_hippo.pdb

>  <compound>  (155) 
UBQKCCHYAOITMY-UHFFFAOYSA-N

>  <target>  (155) 
CHIKV_Mac

>  <tags>  (155) 
['[Other] Adenine site', 'hits', '[Other] fragment screen']

>  <reference>  (155) 
None

>  <exports>  (155) 
['/opt/xchem-fragalysis-2/maxwin/CHIKV_HIPPO/web_resources/hit_poses.sdf', '/opt/xchem-fragalysis-2/maxwin/CHIKV_HIPPO/web/web_resources/hit_poses.sdf', '/opt/xchem-fragalysis-2/maxwin/CHIKV_HIPPO/web2/web_resources/hit_poses.sdf']

>  <observation_longname>  (155) 
nan

>  <ConformerSites alias>  (155) 
nan

>  <CanonSites alias>  (155) 
nan

>  <CrystalformSites alias>  (155) 
nan

>  <Quatassemblies alias>  (155) 
nan

>  <Crystalforms alias>  (155) 
nan

$$$$
c1118e
     RDKit          3D

  7  7  0  0  0  0  0  0  0  0999 V2000
   18.8560    4.2550   11.5940 O   0  0  0  0  0  0  0  0  0  0  0  0
   17.7060    3.9200   12.2020 C   0  0  0  0  0  0  0  0  0  0  0  0
   17.7810    3.5060   13.4970 N   0  0  0  0  0  0  0  0  0  0  0  0
   16.6410    3.0860   14.0710 C   0  0  0  0  0  0  0  0  0  0  0  0
   15.4200    3.0570   13.4240 C   0  0  0  0  0  0  0  0  0  0  0  0
   15.3640    3.4890   12.1180 C   0  0  0  0  0  0  0  0  0  0  0  0
   16.5090    3.9340   11.4830 C   0  0  0  0  0  0  0  0  0  0  0  0
  2  1  1  0
  2  7  2  0
  7  6  1  0
  6  5  2  0
  5  4  1  0
  4  3  2  0
  3  2  1  0
M  END
>  <id>  (156) 
5944

>  <inchikey>  (156) 
UBQKCCHYAOITMY-UHFFFAOYSA-N

>  <alias>  (156) 
c1118e

>  <smiles>  (156) 
Oc1ccccn1

>  <path>  (156) 
/opt/xchem-fragalysis-2/maxwin/CHIKV_Mac_20240920/aligned_files/c1118e/c1118e_hippo.pdb

>  <compound>  (156) 
UBQKCCHYAOITMY-UHFFFAOYSA-N

>  <target>  (156) 
CHIKV_Mac

>  <tags>  (156) 
['[Other] Oxyanion site', 'hits', '[Other] Trp148 site', '[Other] fragment screen']

>  <reference>  (156) 
None

>  <exports>  (156) 
['/opt/xchem-fragalysis-2/maxwin/CHIKV_HIPPO/web_resources/hit_poses.sdf', '/opt/xchem-fragalysis-2/maxwin/CHIKV_HIPPO/web/web_resources/hit_poses.sdf', '/opt/xchem-fragalysis-2/maxwin/CHIKV_HIPPO/web2/web_resources/hit_poses.sdf']

>  <observation_longname>  (156) 
nan

>  <ConformerSites alias>  (156) 
nan

>  <CanonSites alias>  (156) 
nan

>  <CrystalformSites alias>  (156) 
nan

>  <Quatassemblies alias>  (156) 
nan

>  <Crystalforms alias>  (156) 
nan

$$$$
c1118h
     RDKit          3D

  7  7  0  0  0  0  0  0  0  0999 V2000
   18.8230    4.2470   11.3340 O   0  0  0  0  0  0  0  0  0  0  0  0
   17.7690    3.8290   12.0020 C   0  0  0  0  0  0  0  0  0  0  0  0
   17.9550    3.5000   13.3060 N   0  0  0  0  0  0  0  0  0  0  0  0
   16.8930    3.0360   13.9770 C   0  0  0  0  0  0  0  0  0  0  0  0
   15.6420    2.8900   13.4170 C   0  0  0  0  0  0  0  0  0  0  0  0
   15.4720    3.2380   12.0910 C   0  0  0  0  0  0  0  0  0  0  0  0
   16.5370    3.7190   11.3520 C   0  0  0  0  0  0  0  0  0  0  0  0
  2  1  1  0
  2  7  2  0
  7  6  1  0
  6  5  2  0
  5  4  1  0
  4  3  2  0
  3  2  1  0
M  END
>  <id>  (157) 
5945

>  <inchikey>  (157) 
UBQKCCHYAOITMY-UHFFFAOYSA-N

>  <alias>  (157) 
c1118h

>  <smiles>  (157) 
Oc1ccccn1

>  <path>  (157) 
/opt/xchem-fragalysis-2/maxwin/CHIKV_Mac_20240920/aligned_files/c1118h/c1118h_hippo.pdb

>  <compound>  (157) 
UBQKCCHYAOITMY-UHFFFAOYSA-N

>  <target>  (157) 
CHIKV_Mac

>  <tags>  (157) 
['[Other] Oxyanion site', 'hits', '[Other] Trp148 site', '[Other] fragment screen']

>  <reference>  (157) 
None

>  <exports>  (157) 
['/opt/xchem-fragalysis-2/maxwin/CHIKV_HIPPO/web_resources/hit_poses.sdf', '/opt/xchem-fragalysis-2/maxwin/CHIKV_HIPPO/web/web_resources/hit_poses.sdf', '/opt/xchem-fragalysis-2/maxwin/CHIKV_HIPPO/web2/web_resources/hit_poses.sdf']

>  <observation_longname>  (157) 
CHIKV_MacB-x1118_D_401_1_CHIKV_MacB-x2352+C+401+1

>  <ConformerSites alias>  (157) 
1a - c2352/C/401

>  <CanonSites alias>  (157) 
1 - c2352/C/401/1

>  <CrystalformSites alias>  (157) 
F1a - c0270/A/304

>  <Quatassemblies alias>  (157) 
A1 - monomer

>  <Crystalforms alias>  (157) 
F1 - P31-4fold-NCS

$$$$
c1118i
     RDKit          3D

  7  7  0  0  0  0  0  0  0  0999 V2000
   14.6510   11.4770    9.9960 O   0  0  0  0  0  0  0  0  0  0  0  0
   14.6390   11.6980   11.2850 C   0  0  0  0  0  0  0  0  0  0  0  0
   14.6110   12.9900   11.6970 N   0  0  0  0  0  0  0  0  0  0  0  0
   14.5920   13.2080   13.0180 C   0  0  0  0  0  0  0  0  0  0  0  0
   14.6030   12.2040   13.9650 C   0  0  0  0  0  0  0  0  0  0  0  0
   14.6340   10.9040   13.5330 C   0  0  0  0  0  0  0  0  0  0  0  0
   14.6480   10.6240   12.1770 C   0  0  0  0  0  0  0  0  0  0  0  0
  2  1  1  0
  2  7  2  0
  7  6  1  0
  6  5  2  0
  5  4  1  0
  4  3  2  0
  3  2  1  0
M  END
>  <id>  (158) 
5946

>  <inchikey>  (158) 
UBQKCCHYAOITMY-UHFFFAOYSA-N

>  <alias>  (158) 
c1118i

>  <smiles>  (158) 
Oc1ccccn1

>  <path>  (158) 
/opt/xchem-fragalysis-2/maxwin/CHIKV_Mac_20240920/aligned_files/c1118i/c1118i_hippo.pdb

>  <compound>  (158) 
UBQKCCHYAOITMY-UHFFFAOYSA-N

>  <target>  (158) 
CHIKV_Mac

>  <tags>  (158) 
['[Other] Adenine site', 'hits', '[Other] fragment screen']

>  <reference>  (158) 
None

>  <exports>  (158) 
['/opt/xchem-fragalysis-2/maxwin/CHIKV_HIPPO/web_resources/hit_poses.sdf', '/opt/xchem-fragalysis-2/maxwin/CHIKV_HIPPO/web/web_resources/hit_poses.sdf', '/opt/xchem-fragalysis-2/maxwin/CHIKV_HIPPO/web2/web_resources/hit_poses.sdf']

>  <observation_longname>  (158) 
nan

>  <ConformerSites alias>  (158) 
nan

>  <CanonSites alias>  (158) 
nan

>  <CrystalformSites alias>  (158) 
nan

>  <Quatassemblies alias>  (158) 
nan

>  <Crystalforms alias>  (158) 
nan

$$$$
c1118f
     RDKit          3D

  7  7  0  0  0  0  0  0  0  0999 V2000
    0.0160   18.8950   -4.2510 O   0  0  0  0  0  0  0  0  0  0  0  0
    0.4960   17.7750   -4.7480 C   0  0  0  0  0  0  0  0  0  0  0  0
    1.8410   17.6910   -4.9330 N   0  0  0  0  0  0  0  0  0  0  0  0
    2.3060   16.5710   -5.5070 C   0  0  0  0  0  0  0  0  0  0  0  0
    1.5010   15.5240   -5.9110 C   0  0  0  0  0  0  0  0  0  0  0  0
    0.1450   15.6220   -5.6960 C   0  0  0  0  0  0  0  0  0  0  0  0
   -0.3870   16.7540   -5.1030 C   0  0  0  0  0  0  0  0  0  0  0  0
  2  1  1  0
  2  7  2  0
  7  6  1  0
  6  5  2  0
  5  4  1  0
  4  3  2  0
  3  2  1  0
M  END
>  <id>  (159) 
5947

>  <inchikey>  (159) 
UBQKCCHYAOITMY-UHFFFAOYSA-N

>  <alias>  (159) 
c1118f

>  <smiles>  (159) 
Oc1ccccn1

>  <path>  (159) 
/opt/xchem-fragalysis-2/maxwin/CHIKV_Mac_20240920/aligned_files/c1118f/c1118f_hippo.pdb

>  <compound>  (159) 
UBQKCCHYAOITMY-UHFFFAOYSA-N

>  <target>  (159) 
CHIKV_Mac

>  <tags>  (159) 
['[Other] ignore', 'hits']

>  <reference>  (159) 
None

>  <exports>  (159) 
['/opt/xchem-fragalysis-2/maxwin/CHIKV_HIPPO/web_resources/hit_poses.sdf', '/opt/xchem-fragalysis-2/maxwin/CHIKV_HIPPO/web/web_resources/hit_poses.sdf', '/opt/xchem-fragalysis-2/maxwin/CHIKV_HIPPO/web2/web_resources/hit_poses.sdf']

>  <observation_longname>  (159) 
nan

>  <ConformerSites alias>  (159) 
nan

>  <CanonSites alias>  (159) 
nan

>  <CrystalformSites alias>  (159) 
nan

>  <Quatassemblies alias>  (159) 
nan

>  <Crystalforms alias>  (159) 
nan

$$$$
c1118j
     RDKit          3D

  7  7  0  0  0  0  0  0  0  0999 V2000
    0.2400   18.8410   -4.2280 O   0  0  0  0  0  0  0  0  0  0  0  0
    0.6650   17.7010   -4.7790 C   0  0  0  0  0  0  0  0  0  0  0  0
    2.0010   17.5820   -5.0470 N   0  0  0  0  0  0  0  0  0  0  0  0
    2.3960   16.4740   -5.6930 C   0  0  0  0  0  0  0  0  0  0  0  0
    1.5360   15.4670   -6.0880 C   0  0  0  0  0  0  0  0  0  0  0  0
    0.1970   15.5940   -5.7830 C   0  0  0  0  0  0  0  0  0  0  0  0
   -0.2650   16.7170   -5.1180 C   0  0  0  0  0  0  0  0  0  0  0  0
  2  1  1  0
  2  7  2  0
  7  6  1  0
  6  5  2  0
  5  4  1  0
  4  3  2  0
  3  2  1  0
M  END
>  <id>  (160) 
5948

>  <inchikey>  (160) 
UBQKCCHYAOITMY-UHFFFAOYSA-N

>  <alias>  (160) 
c1118j

>  <smiles>  (160) 
Oc1ccccn1

>  <path>  (160) 
/opt/xchem-fragalysis-2/maxwin/CHIKV_Mac_20240920/aligned_files/c1118j/c1118j_hippo.pdb

>  <compound>  (160) 
UBQKCCHYAOITMY-UHFFFAOYSA-N

>  <target>  (160) 
CHIKV_Mac

>  <tags>  (160) 
['[Other] ignore', 'hits']

>  <reference>  (160) 
None

>  <exports>  (160) 
['/opt/xchem-fragalysis-2/maxwin/CHIKV_HIPPO/web_resources/hit_poses.sdf', '/opt/xchem-fragalysis-2/maxwin/CHIKV_HIPPO/web/web_resources/hit_poses.sdf', '/opt/xchem-fragalysis-2/maxwin/CHIKV_HIPPO/web2/web_resources/hit_poses.sdf']

>  <observation_longname>  (160) 
nan

>  <ConformerSites alias>  (160) 
nan

>  <CanonSites alias>  (160) 
nan

>  <CrystalformSites alias>  (160) 
nan

>  <Quatassemblies alias>  (160) 
nan

>  <Crystalforms alias>  (160) 
nan

$$$$
c1118a
     RDKit          3D

  7  7  0  0  0  0  0  0  0  0999 V2000
   18.7430    4.4260   11.4610 O   0  0  0  0  0  0  0  0  0  0  0  0
   17.7430    3.8580   12.1010 C   0  0  0  0  0  0  0  0  0  0  0  0
   17.9860    3.4040   13.3530 N   0  0  0  0  0  0  0  0  0  0  0  0
   16.9560    2.8760   14.0290 C   0  0  0  0  0  0  0  0  0  0  0  0
   15.6800    2.7870   13.5270 C   0  0  0  0  0  0  0  0  0  0  0  0
   15.4480    3.2520   12.2490 C   0  0  0  0  0  0  0  0  0  0  0  0
   16.4850    3.7860   11.5020 C   0  0  0  0  0  0  0  0  0  0  0  0
  2  1  1  0
  2  7  2  0
  7  6  1  0
  6  5  2  0
  5  4  1  0
  4  3  2  0
  3  2  1  0
M  END
>  <id>  (161) 
5949

>  <inchikey>  (161) 
UBQKCCHYAOITMY-UHFFFAOYSA-N

>  <alias>  (161) 
c1118a

>  <smiles>  (161) 
Oc1ccccn1

>  <path>  (161) 
/opt/xchem-fragalysis-2/maxwin/CHIKV_Mac_20240920/aligned_files/c1118a/c1118a_hippo.pdb

>  <compound>  (161) 
UBQKCCHYAOITMY-UHFFFAOYSA-N

>  <target>  (161) 
CHIKV_Mac

>  <tags>  (161) 
['[Other] Oxyanion site', 'hits', '[Other] Trp148 site', '[Other] fragment screen']

>  <reference>  (161) 
None

>  <exports>  (161) 
['/opt/xchem-fragalysis-2/maxwin/CHIKV_HIPPO/web_resources/hit_poses.sdf', '/opt/xchem-fragalysis-2/maxwin/CHIKV_HIPPO/web/web_resources/hit_poses.sdf', '/opt/xchem-fragalysis-2/maxwin/CHIKV_HIPPO/web2/web_resources/hit_poses.sdf']

>  <observation_longname>  (161) 
nan

>  <ConformerSites alias>  (161) 
nan

>  <CanonSites alias>  (161) 
nan

>  <CrystalformSites alias>  (161) 
nan

>  <Quatassemblies alias>  (161) 
nan

>  <Crystalforms alias>  (161) 
nan

$$$$
c1118d
     RDKit          3D

  7  7  0  0  0  0  0  0  0  0999 V2000
   18.5570    4.2510   11.5150 O   0  0  0  0  0  0  0  0  0  0  0  0
   17.7180    3.6630   12.3350 C   0  0  0  0  0  0  0  0  0  0  0  0
   18.1840    3.3050   13.5420 N   0  0  0  0  0  0  0  0  0  0  0  0
   17.3000    2.8340   14.4310 C   0  0  0  0  0  0  0  0  0  0  0  0
   15.9590    2.6900   14.1660 C   0  0  0  0  0  0  0  0  0  0  0  0
   15.5030    3.0380   12.9160 C   0  0  0  0  0  0  0  0  0  0  0  0
   16.3780    3.5340   11.9650 C   0  0  0  0  0  0  0  0  0  0  0  0
  2  1  1  0
  2  7  2  0
  7  6  1  0
  6  5  2  0
  5  4  1  0
  4  3  2  0
  3  2  1  0
M  END
>  <id>  (162) 
5950

>  <inchikey>  (162) 
UBQKCCHYAOITMY-UHFFFAOYSA-N

>  <alias>  (162) 
c1118d

>  <smiles>  (162) 
Oc1ccccn1

>  <path>  (162) 
/opt/xchem-fragalysis-2/maxwin/CHIKV_Mac_20240920/aligned_files/c1118d/c1118d_hippo.pdb

>  <compound>  (162) 
UBQKCCHYAOITMY-UHFFFAOYSA-N

>  <target>  (162) 
CHIKV_Mac

>  <tags>  (162) 
['[Other] Oxyanion site', 'hits', '[Other] Trp148 site', '[Other] fragment screen']

>  <reference>  (162) 
None

>  <exports>  (162) 
['/opt/xchem-fragalysis-2/maxwin/CHIKV_HIPPO/web_resources/hit_poses.sdf', '/opt/xchem-fragalysis-2/maxwin/CHIKV_HIPPO/web/web_resources/hit_poses.sdf', '/opt/xchem-fragalysis-2/maxwin/CHIKV_HIPPO/web2/web_resources/hit_poses.sdf']

>  <observation_longname>  (162) 
nan

>  <ConformerSites alias>  (162) 
nan

>  <CanonSites alias>  (162) 
nan

>  <CrystalformSites alias>  (162) 
nan

>  <Quatassemblies alias>  (162) 
nan

>  <Crystalforms alias>  (162) 
nan

$$$$
c1118g
     RDKit          3D

  7  7  0  0  0  0  0  0  0  0999 V2000
   21.5820   11.6820   10.1520 O   0  0  0  0  0  0  0  0  0  0  0  0
   20.7230   12.3510   10.9110 C   0  0  0  0  0  0  0  0  0  0  0  0
   19.4940   11.8020   11.0920 N   0  0  0  0  0  0  0  0  0  0  0  0
   18.6250   12.4760   11.8660 C   0  0  0  0  0  0  0  0  0  0  0  0
   18.9170   13.6790   12.4790 C   0  0  0  0  0  0  0  0  0  0  0  0
   20.1670   14.2230   12.2830 C   0  0  0  0  0  0  0  0  0  0  0  0
   21.0960   13.5650   11.4910 C   0  0  0  0  0  0  0  0  0  0  0  0
  2  1  1  0
  2  7  2  0
  7  6  1  0
  6  5  2  0
  5  4  1  0
  4  3  2  0
  3  2  1  0
M  END
>  <id>  (163) 
5951

>  <inchikey>  (163) 
UBQKCCHYAOITMY-UHFFFAOYSA-N

>  <alias>  (163) 
c1118g

>  <smiles>  (163) 
Oc1ccccn1

>  <path>  (163) 
/opt/xchem-fragalysis-2/maxwin/CHIKV_Mac_20240920/aligned_files/c1118g/c1118g_hippo.pdb

>  <compound>  (163) 
UBQKCCHYAOITMY-UHFFFAOYSA-N

>  <target>  (163) 
CHIKV_Mac

>  <tags>  (163) 
['hits', '[Other] Arg144 pocket', '[Other] fragment screen']

>  <reference>  (163) 
None

>  <exports>  (163) 
['/opt/xchem-fragalysis-2/maxwin/CHIKV_HIPPO/web_resources/hit_poses.sdf', '/opt/xchem-fragalysis-2/maxwin/CHIKV_HIPPO/web/web_resources/hit_poses.sdf', '/opt/xchem-fragalysis-2/maxwin/CHIKV_HIPPO/web2/web_resources/hit_poses.sdf']

>  <observation_longname>  (163) 
nan

>  <ConformerSites alias>  (163) 
nan

>  <CanonSites alias>  (163) 
nan

>  <CrystalformSites alias>  (163) 
nan

>  <Quatassemblies alias>  (163) 
nan

>  <Crystalforms alias>  (163) 
nan

$$$$
c1139a
     RDKit          3D

  7  7  0  0  0  0  0  0  0  0999 V2000
    7.2570    7.7630   15.0170 O   0  0  0  0  0  0  0  0  0  0  0  0
    6.4130    7.0900   15.9260 C   0  0  0  0  0  0  0  0  0  0  0  0
    5.8310    8.0820   16.8780 C   0  0  0  0  0  0  0  0  0  0  0  0
    4.5550    8.4720   16.8580 N   0  0  0  0  0  0  0  0  0  0  0  0
    4.4820    9.4630   17.7860 N   0  0  0  0  0  0  0  0  0  0  0  0
    5.6730    9.6650   18.3530 C   0  0  0  0  0  0  0  0  0  0  0  0
    6.5660    8.8120   17.7570 C   0  0  0  0  0  0  0  0  0  0  0  0
  2  1  1  0
  3  2  1  0
  3  7  1  0
  7  6  2  0
  6  5  1  0
  5  4  1  0
  4  3  2  0
M  END
>  <id>  (164) 
5952

>  <inchikey>  (164) 
UIEABCXJWANXFS-UHFFFAOYSA-N

>  <alias>  (164) 
c1139a

>  <smiles>  (164) 
OCc1cc[nH]n1

>  <path>  (164) 
/opt/xchem-fragalysis-2/maxwin/CHIKV_Mac_20240920/aligned_files/c1139a/c1139a_hippo.pdb

>  <compound>  (164) 
UIEABCXJWANXFS-UHFFFAOYSA-N

>  <target>  (164) 
CHIKV_Mac

>  <tags>  (164) 
['hits', '[Other] Ribose site', '[Other] Phosphate site', '[Other] fragment screen']

>  <reference>  (164) 
None

>  <exports>  (164) 
['/opt/xchem-fragalysis-2/maxwin/CHIKV_HIPPO/web_resources/hit_poses.sdf', '/opt/xchem-fragalysis-2/maxwin/CHIKV_HIPPO/web/web_resources/hit_poses.sdf', '/opt/xchem-fragalysis-2/maxwin/CHIKV_HIPPO/web2/web_resources/hit_poses.sdf']

>  <observation_longname>  (164) 
nan

>  <ConformerSites alias>  (164) 
nan

>  <CanonSites alias>  (164) 
nan

>  <CrystalformSites alias>  (164) 
nan

>  <Quatassemblies alias>  (164) 
nan

>  <Crystalforms alias>  (164) 
nan

$$$$
c1139b
     RDKit          3D

  7  7  0  0  0  0  0  0  0  0999 V2000
    7.9690    8.5780   14.9510 O   0  0  0  0  0  0  0  0  0  0  0  0
    7.1380    7.5590   15.4950 C   0  0  0  0  0  0  0  0  0  0  0  0
    6.0730    8.1270   16.3780 C   0  0  0  0  0  0  0  0  0  0  0  0
    4.7980    8.1160   15.9800 N   0  0  0  0  0  0  0  0  0  0  0  0
    4.1270    8.8100   16.9290 N   0  0  0  0  0  0  0  0  0  0  0  0
    4.9290    9.2270   17.9160 C   0  0  0  0  0  0  0  0  0  0  0  0
    6.1940    8.8100   17.6100 C   0  0  0  0  0  0  0  0  0  0  0  0
  2  1  1  0
  3  2  1  0
  3  7  1  0
  7  6  2  0
  6  5  1  0
  5  4  1  0
  4  3  2  0
M  END
>  <id>  (165) 
5953

>  <inchikey>  (165) 
UIEABCXJWANXFS-UHFFFAOYSA-N

>  <alias>  (165) 
c1139b

>  <smiles>  (165) 
OCc1cc[nH]n1

>  <path>  (165) 
/opt/xchem-fragalysis-2/maxwin/CHIKV_Mac_20240920/aligned_files/c1139b/c1139b_hippo.pdb

>  <compound>  (165) 
UIEABCXJWANXFS-UHFFFAOYSA-N

>  <target>  (165) 
CHIKV_Mac

>  <tags>  (165) 
['hits', '[Other] Ribose site', '[Other] Phosphate site', '[Other] fragment screen']

>  <reference>  (165) 
None

>  <exports>  (165) 
['/opt/xchem-fragalysis-2/maxwin/CHIKV_HIPPO/web_resources/hit_poses.sdf', '/opt/xchem-fragalysis-2/maxwin/CHIKV_HIPPO/web/web_resources/hit_poses.sdf', '/opt/xchem-fragalysis-2/maxwin/CHIKV_HIPPO/web2/web_resources/hit_poses.sdf']

>  <observation_longname>  (165) 
nan

>  <ConformerSites alias>  (165) 
nan

>  <CanonSites alias>  (165) 
nan

>  <CrystalformSites alias>  (165) 
nan

>  <Quatassemblies alias>  (165) 
nan

>  <Crystalforms alias>  (165) 
nan

$$$$
c1198a
     RDKit          3D

 10 11  0  0  0  0  0  0  0  0999 V2000
   15.0700    3.7030   11.3800 N   0  0  0  0  0  0  0  0  0  0  0  0
   16.3150    3.5980   11.8770 C   0  0  0  0  0  0  0  0  0  0  0  0
   16.5840    3.0320   13.1170 N   0  0  0  0  0  0  0  0  0  0  0  0
   17.9550    3.2240   13.2770 C   0  0  0  0  0  0  0  0  0  0  0  0
   18.4670    3.8280   12.2140 N   0  0  0  0  0  0  0  0  0  0  0  0
   17.4270    4.0610   11.3280 N   0  0  0  0  0  0  0  0  0  0  0  0
   15.8190    2.3920   14.0750 C   0  0  0  0  0  0  0  0  0  0  0  0
   16.4110    1.9330   15.1960 C   0  0  0  0  0  0  0  0  0  0  0  0
   17.8010    2.1200   15.4010 C   0  0  0  0  0  0  0  0  0  0  0  0
   18.5630    2.7560   14.4740 C   0  0  0  0  0  0  0  0  0  0  0  0
  2  1  1  0
  2  6  2  0
  6  5  1  0
  5  4  2  0
  4 10  1  0
 10  9  2  0
  9  8  1  0
  8  7  2  0
  7  3  1  0
  3  2  1  0
  4  3  1  0
M  END
>  <id>  (166) 
5954

>  <inchikey>  (166) 
NCZQAIFOXJOCFI-UHFFFAOYSA-N

>  <alias>  (166) 
c1198a

>  <smiles>  (166) 
Nc1nnc2ccccn12

>  <path>  (166) 
/opt/xchem-fragalysis-2/maxwin/CHIKV_Mac_20240920/aligned_files/c1198a/c1198a_hippo.pdb

>  <compound>  (166) 
NCZQAIFOXJOCFI-UHFFFAOYSA-N

>  <target>  (166) 
CHIKV_Mac

>  <tags>  (166) 
['[Other] Oxyanion site', 'hits', '[Other] Trp148 site', '[Other] fragment screen']

>  <reference>  (166) 
None

>  <exports>  (166) 
['/opt/xchem-fragalysis-2/maxwin/CHIKV_HIPPO/web_resources/hit_poses.sdf', '/opt/xchem-fragalysis-2/maxwin/CHIKV_HIPPO/web/web_resources/hit_poses.sdf', '/opt/xchem-fragalysis-2/maxwin/CHIKV_HIPPO/web2/web_resources/hit_poses.sdf']

>  <observation_longname>  (166) 
nan

>  <ConformerSites alias>  (166) 
nan

>  <CanonSites alias>  (166) 
nan

>  <CrystalformSites alias>  (166) 
nan

>  <Quatassemblies alias>  (166) 
nan

>  <Crystalforms alias>  (166) 
nan

$$$$
c1198b
     RDKit          3D

 10 11  0  0  0  0  0  0  0  0999 V2000
   15.0340    3.7890   11.5090 N   0  0  0  0  0  0  0  0  0  0  0  0
   16.2820    3.6470   11.9640 C   0  0  0  0  0  0  0  0  0  0  0  0
   16.5590    3.1310   13.2210 N   0  0  0  0  0  0  0  0  0  0  0  0
   17.9460    3.2210   13.3230 C   0  0  0  0  0  0  0  0  0  0  0  0
   18.4620    3.7370   12.2150 N   0  0  0  0  0  0  0  0  0  0  0  0
   17.4000    4.0050   11.3490 N   0  0  0  0  0  0  0  0  0  0  0  0
   15.7790    2.6390   14.2480 C   0  0  0  0  0  0  0  0  0  0  0  0
   16.3650    2.2380   15.3950 C   0  0  0  0  0  0  0  0  0  0  0  0
   17.7620    2.3140   15.5380 C   0  0  0  0  0  0  0  0  0  0  0  0
   18.5490    2.7890   14.5310 C   0  0  0  0  0  0  0  0  0  0  0  0
  2  1  1  0
  2  6  2  0
  6  5  1  0
  5  4  2  0
  4 10  1  0
 10  9  2  0
  9  8  1  0
  8  7  2  0
  7  3  1  0
  3  2  1  0
  4  3  1  0
M  END
>  <id>  (167) 
5955

>  <inchikey>  (167) 
NCZQAIFOXJOCFI-UHFFFAOYSA-N

>  <alias>  (167) 
c1198b

>  <smiles>  (167) 
Nc1nnc2ccccn12

>  <path>  (167) 
/opt/xchem-fragalysis-2/maxwin/CHIKV_Mac_20240920/aligned_files/c1198b/c1198b_hippo.pdb

>  <compound>  (167) 
NCZQAIFOXJOCFI-UHFFFAOYSA-N

>  <target>  (167) 
CHIKV_Mac

>  <tags>  (167) 
['[Other] Oxyanion site', 'hits', '[Other] Trp148 site', '[Other] fragment screen']

>  <reference>  (167) 
None

>  <exports>  (167) 
['/opt/xchem-fragalysis-2/maxwin/CHIKV_HIPPO/web_resources/hit_poses.sdf', '/opt/xchem-fragalysis-2/maxwin/CHIKV_HIPPO/web/web_resources/hit_poses.sdf', '/opt/xchem-fragalysis-2/maxwin/CHIKV_HIPPO/web2/web_resources/hit_poses.sdf']

>  <observation_longname>  (167) 
nan

>  <ConformerSites alias>  (167) 
nan

>  <CanonSites alias>  (167) 
nan

>  <CrystalformSites alias>  (167) 
nan

>  <Quatassemblies alias>  (167) 
nan

>  <Crystalforms alias>  (167) 
nan

$$$$
c1198c
     RDKit          3D

 10 11  0  0  0  0  0  0  0  0999 V2000
   14.9500    3.7750   11.4700 N   0  0  0  0  0  0  0  0  0  0  0  0
   16.1730    3.8190   12.0060 C   0  0  0  0  0  0  0  0  0  0  0  0
   16.4690    3.2520   13.2430 N   0  0  0  0  0  0  0  0  0  0  0  0
   17.8510    3.4100   13.3510 C   0  0  0  0  0  0  0  0  0  0  0  0
   18.3360    4.0520   12.2960 N   0  0  0  0  0  0  0  0  0  0  0  0
   17.2680    4.3110   11.4440 N   0  0  0  0  0  0  0  0  0  0  0  0
   15.7290    2.6300   14.2290 C   0  0  0  0  0  0  0  0  0  0  0  0
   16.3570    2.1150   15.3110 C   0  0  0  0  0  0  0  0  0  0  0  0
   17.7560    2.2210   15.4350 C   0  0  0  0  0  0  0  0  0  0  0  0
   18.4970    2.8620   14.4870 C   0  0  0  0  0  0  0  0  0  0  0  0
  2  1  1  0
  2  6  2  0
  6  5  1  0
  5  4  2  0
  4 10  1  0
 10  9  2  0
  9  8  1  0
  8  7  2  0
  7  3  1  0
  3  2  1  0
  4  3  1  0
M  END
>  <id>  (168) 
5956

>  <inchikey>  (168) 
NCZQAIFOXJOCFI-UHFFFAOYSA-N

>  <alias>  (168) 
c1198c

>  <smiles>  (168) 
Nc1nnc2ccccn12

>  <path>  (168) 
/opt/xchem-fragalysis-2/maxwin/CHIKV_Mac_20240920/aligned_files/c1198c/c1198c_hippo.pdb

>  <compound>  (168) 
NCZQAIFOXJOCFI-UHFFFAOYSA-N

>  <target>  (168) 
CHIKV_Mac

>  <tags>  (168) 
['[Other] Oxyanion site', 'hits', '[Other] Trp148 site', '[Other] fragment screen']

>  <reference>  (168) 
None

>  <exports>  (168) 
['/opt/xchem-fragalysis-2/maxwin/CHIKV_HIPPO/web_resources/hit_poses.sdf', '/opt/xchem-fragalysis-2/maxwin/CHIKV_HIPPO/web/web_resources/hit_poses.sdf', '/opt/xchem-fragalysis-2/maxwin/CHIKV_HIPPO/web2/web_resources/hit_poses.sdf']

>  <observation_longname>  (168) 
nan

>  <ConformerSites alias>  (168) 
nan

>  <CanonSites alias>  (168) 
nan

>  <CrystalformSites alias>  (168) 
nan

>  <Quatassemblies alias>  (168) 
nan

>  <Crystalforms alias>  (168) 
nan

$$$$
c1198d
     RDKit          3D

 10 11  0  0  0  0  0  0  0  0999 V2000
   15.1280    3.7810   11.4040 N   0  0  0  0  0  0  0  0  0  0  0  0
   16.3640    3.6920   11.9050 C   0  0  0  0  0  0  0  0  0  0  0  0
   16.6250    3.1580   13.1730 N   0  0  0  0  0  0  0  0  0  0  0  0
   18.0030    3.3000   13.3080 C   0  0  0  0  0  0  0  0  0  0  0  0
   18.5290    3.8590   12.2250 N   0  0  0  0  0  0  0  0  0  0  0  0
   17.4870    4.1020   11.3320 N   0  0  0  0  0  0  0  0  0  0  0  0
   15.8450    2.5880   14.1620 C   0  0  0  0  0  0  0  0  0  0  0  0
   16.4260    2.1550   15.3010 C   0  0  0  0  0  0  0  0  0  0  0  0
   17.8230    2.2810   15.4750 C   0  0  0  0  0  0  0  0  0  0  0  0
   18.6020    2.8410   14.5050 C   0  0  0  0  0  0  0  0  0  0  0  0
  2  1  1  0
  2  6  2  0
  6  5  1  0
  5  4  2  0
  4 10  1  0
 10  9  2  0
  9  8  1  0
  8  7  2  0
  7  3  1  0
  3  2  1  0
  4  3  1  0
M  END
>  <id>  (169) 
5957

>  <inchikey>  (169) 
NCZQAIFOXJOCFI-UHFFFAOYSA-N

>  <alias>  (169) 
c1198d

>  <smiles>  (169) 
Nc1nnc2ccccn12

>  <path>  (169) 
/opt/xchem-fragalysis-2/maxwin/CHIKV_Mac_20240920/aligned_files/c1198d/c1198d_hippo.pdb

>  <compound>  (169) 
NCZQAIFOXJOCFI-UHFFFAOYSA-N

>  <target>  (169) 
CHIKV_Mac

>  <tags>  (169) 
['[Other] Oxyanion site', 'hits', '[Other] Trp148 site', '[Other] fragment screen']

>  <reference>  (169) 
None

>  <exports>  (169) 
['/opt/xchem-fragalysis-2/maxwin/CHIKV_HIPPO/web_resources/hit_poses.sdf', '/opt/xchem-fragalysis-2/maxwin/CHIKV_HIPPO/web/web_resources/hit_poses.sdf', '/opt/xchem-fragalysis-2/maxwin/CHIKV_HIPPO/web2/web_resources/hit_poses.sdf']

>  <observation_longname>  (169) 
nan

>  <ConformerSites alias>  (169) 
nan

>  <CanonSites alias>  (169) 
nan

>  <CrystalformSites alias>  (169) 
nan

>  <Quatassemblies alias>  (169) 
nan

>  <Crystalforms alias>  (169) 
nan

$$$$
c1123a
     RDKit          3D

  6  6  0  0  0  0  0  0  0  0999 V2000
    4.9410    9.4800   17.5890 N   0  0  0  0  0  0  0  0  0  0  0  0
    5.7940    8.5080   17.2480 C   0  0  0  0  0  0  0  0  0  0  0  0
    5.3950    7.2350   17.0190 N   0  0  0  0  0  0  0  0  0  0  0  0
    6.4940    6.5400   16.6930 C   0  0  0  0  0  0  0  0  0  0  0  0
    7.5870    7.3740   16.7210 N   0  0  0  0  0  0  0  0  0  0  0  0
    7.1030    8.6270   17.0770 N   0  0  0  0  0  0  0  0  0  0  0  0
  2  1  1  0
  2  6  2  0
  6  5  1  0
  5  4  2  0
  4  3  1  0
  3  2  1  0
M  END
>  <id>  (170) 
5958

>  <inchikey>  (170) 
KLSJWNVTNUYHDU-UHFFFAOYSA-N

>  <alias>  (170) 
c1123a

>  <smiles>  (170) 
Nc1nnc[nH]1

>  <path>  (170) 
/opt/xchem-fragalysis-2/maxwin/CHIKV_Mac_20240920/aligned_files/c1123a/c1123a_hippo.pdb

>  <compound>  (170) 
KLSJWNVTNUYHDU-UHFFFAOYSA-N

>  <target>  (170) 
CHIKV_Mac

>  <tags>  (170) 
['hits', '[Other] Ribose site', '[Other] fragment screen']

>  <reference>  (170) 
None

>  <exports>  (170) 
['/opt/xchem-fragalysis-2/maxwin/CHIKV_HIPPO/web_resources/hit_poses.sdf', '/opt/xchem-fragalysis-2/maxwin/CHIKV_HIPPO/web/web_resources/hit_poses.sdf', '/opt/xchem-fragalysis-2/maxwin/CHIKV_HIPPO/web2/web_resources/hit_poses.sdf']

>  <observation_longname>  (170) 
nan

>  <ConformerSites alias>  (170) 
nan

>  <CanonSites alias>  (170) 
nan

>  <CrystalformSites alias>  (170) 
nan

>  <Quatassemblies alias>  (170) 
nan

>  <Crystalforms alias>  (170) 
nan

$$$$
c1123b
     RDKit          3D

  6  6  0  0  0  0  0  0  0  0999 V2000
   14.2110   12.7920   11.8470 N   0  0  0  0  0  0  0  0  0  0  0  0
   14.5490   11.6390   11.2540 C   0  0  0  0  0  0  0  0  0  0  0  0
   14.8200   10.5040   11.9520 N   0  0  0  0  0  0  0  0  0  0  0  0
   15.0710    9.5500   11.0360 C   0  0  0  0  0  0  0  0  0  0  0  0
   14.9760   10.0770    9.7680 N   0  0  0  0  0  0  0  0  0  0  0  0
   14.6400   11.4120    9.9380 N   0  0  0  0  0  0  0  0  0  0  0  0
  2  1  1  0
  2  6  2  0
  6  5  1  0
  5  4  2  0
  4  3  1  0
  3  2  1  0
M  END
>  <id>  (171) 
5959

>  <inchikey>  (171) 
KLSJWNVTNUYHDU-UHFFFAOYSA-N

>  <alias>  (171) 
c1123b

>  <smiles>  (171) 
Nc1nnc[nH]1

>  <path>  (171) 
/opt/xchem-fragalysis-2/maxwin/CHIKV_Mac_20240920/aligned_files/c1123b/c1123b_hippo.pdb

>  <compound>  (171) 
KLSJWNVTNUYHDU-UHFFFAOYSA-N

>  <target>  (171) 
CHIKV_Mac

>  <tags>  (171) 
['[Other] Adenine site', 'hits', '[Other] fragment screen']

>  <reference>  (171) 
None

>  <exports>  (171) 
['/opt/xchem-fragalysis-2/maxwin/CHIKV_HIPPO/web_resources/hit_poses.sdf', '/opt/xchem-fragalysis-2/maxwin/CHIKV_HIPPO/web/web_resources/hit_poses.sdf', '/opt/xchem-fragalysis-2/maxwin/CHIKV_HIPPO/web2/web_resources/hit_poses.sdf']

>  <observation_longname>  (171) 
nan

>  <ConformerSites alias>  (171) 
nan

>  <CanonSites alias>  (171) 
nan

>  <CrystalformSites alias>  (171) 
nan

>  <Quatassemblies alias>  (171) 
nan

>  <Crystalforms alias>  (171) 
nan

$$$$
c1123c
     RDKit          3D

  6  6  0  0  0  0  0  0  0  0999 V2000
   14.3420   12.2460   11.6290 N   0  0  0  0  0  0  0  0  0  0  0  0
   14.5900   11.0930   11.0100 C   0  0  0  0  0  0  0  0  0  0  0  0
   14.8190    9.9260   11.6860 N   0  0  0  0  0  0  0  0  0  0  0  0
   15.0780    8.9870   10.7540 C   0  0  0  0  0  0  0  0  0  0  0  0
   15.0160    9.5660    9.5010 N   0  0  0  0  0  0  0  0  0  0  0  0
   14.6940   10.9030    9.6890 N   0  0  0  0  0  0  0  0  0  0  0  0
  2  1  1  0
  2  6  2  0
  6  5  1  0
  5  4  2  0
  4  3  1  0
  3  2  1  0
M  END
>  <id>  (172) 
5960

>  <inchikey>  (172) 
KLSJWNVTNUYHDU-UHFFFAOYSA-N

>  <alias>  (172) 
c1123c

>  <smiles>  (172) 
Nc1nnc[nH]1

>  <path>  (172) 
/opt/xchem-fragalysis-2/maxwin/CHIKV_Mac_20240920/aligned_files/c1123c/c1123c_hippo.pdb

>  <compound>  (172) 
KLSJWNVTNUYHDU-UHFFFAOYSA-N

>  <target>  (172) 
CHIKV_Mac

>  <tags>  (172) 
['[Other] Adenine site', 'hits', '[Other] fragment screen']

>  <reference>  (172) 
None

>  <exports>  (172) 
['/opt/xchem-fragalysis-2/maxwin/CHIKV_HIPPO/web_resources/hit_poses.sdf', '/opt/xchem-fragalysis-2/maxwin/CHIKV_HIPPO/web/web_resources/hit_poses.sdf', '/opt/xchem-fragalysis-2/maxwin/CHIKV_HIPPO/web2/web_resources/hit_poses.sdf']

>  <observation_longname>  (172) 
nan

>  <ConformerSites alias>  (172) 
nan

>  <CanonSites alias>  (172) 
nan

>  <CrystalformSites alias>  (172) 
nan

>  <Quatassemblies alias>  (172) 
nan

>  <Crystalforms alias>  (172) 
nan

$$$$
c1123g
     RDKit          3D

  6  6  0  0  0  0  0  0  0  0999 V2000
   14.0830   12.8640   11.5510 N   0  0  0  0  0  0  0  0  0  0  0  0
   14.6110   11.7370   11.0630 C   0  0  0  0  0  0  0  0  0  0  0  0
   14.7950   10.6130   11.8250 N   0  0  0  0  0  0  0  0  0  0  0  0
   15.3070    9.6740   11.0030 C   0  0  0  0  0  0  0  0  0  0  0  0
   15.4710   10.2190    9.7130 N   0  0  0  0  0  0  0  0  0  0  0  0
   15.0090   11.5230    9.8060 N   0  0  0  0  0  0  0  0  0  0  0  0
  2  1  1  0
  2  6  2  0
  6  5  1  0
  5  4  2  0
  4  3  1  0
  3  2  1  0
M  END
>  <id>  (173) 
5961

>  <inchikey>  (173) 
KLSJWNVTNUYHDU-UHFFFAOYSA-N

>  <alias>  (173) 
c1123g

>  <smiles>  (173) 
Nc1nnc[nH]1

>  <path>  (173) 
/opt/xchem-fragalysis-2/maxwin/CHIKV_Mac_20240920/aligned_files/c1123g/c1123g_hippo.pdb

>  <compound>  (173) 
KLSJWNVTNUYHDU-UHFFFAOYSA-N

>  <target>  (173) 
CHIKV_Mac

>  <tags>  (173) 
['[Other] Adenine site', 'hits', '[Other] fragment screen']

>  <reference>  (173) 
None

>  <exports>  (173) 
['/opt/xchem-fragalysis-2/maxwin/CHIKV_HIPPO/web_resources/hit_poses.sdf', '/opt/xchem-fragalysis-2/maxwin/CHIKV_HIPPO/web/web_resources/hit_poses.sdf', '/opt/xchem-fragalysis-2/maxwin/CHIKV_HIPPO/web2/web_resources/hit_poses.sdf']

>  <observation_longname>  (173) 
nan

>  <ConformerSites alias>  (173) 
nan

>  <CanonSites alias>  (173) 
nan

>  <CrystalformSites alias>  (173) 
nan

>  <Quatassemblies alias>  (173) 
nan

>  <Crystalforms alias>  (173) 
nan

$$$$
c1123h
     RDKit          3D

  6  6  0  0  0  0  0  0  0  0999 V2000
    4.8370    9.3740   17.7080 N   0  0  0  0  0  0  0  0  0  0  0  0
    5.5510    8.4090   17.1280 C   0  0  0  0  0  0  0  0  0  0  0  0
    4.9970    7.5000   16.2660 N   0  0  0  0  0  0  0  0  0  0  0  0
    5.9940    6.6780   15.8830 C   0  0  0  0  0  0  0  0  0  0  0  0
    7.1640    7.0750   16.4970 N   0  0  0  0  0  0  0  0  0  0  0  0
    6.8540    8.1820   17.2830 N   0  0  0  0  0  0  0  0  0  0  0  0
  2  1  1  0
  2  6  2  0
  6  5  1  0
  5  4  2  0
  4  3  1  0
  3  2  1  0
M  END
>  <id>  (174) 
5962

>  <inchikey>  (174) 
KLSJWNVTNUYHDU-UHFFFAOYSA-N

>  <alias>  (174) 
c1123h

>  <smiles>  (174) 
Nc1nnc[nH]1

>  <path>  (174) 
/opt/xchem-fragalysis-2/maxwin/CHIKV_Mac_20240920/aligned_files/c1123h/c1123h_hippo.pdb

>  <compound>  (174) 
KLSJWNVTNUYHDU-UHFFFAOYSA-N

>  <target>  (174) 
CHIKV_Mac

>  <tags>  (174) 
['hits', '[Other] Ribose site', '[Other] fragment screen']

>  <reference>  (174) 
None

>  <exports>  (174) 
['/opt/xchem-fragalysis-2/maxwin/CHIKV_HIPPO/web_resources/hit_poses.sdf', '/opt/xchem-fragalysis-2/maxwin/CHIKV_HIPPO/web/web_resources/hit_poses.sdf', '/opt/xchem-fragalysis-2/maxwin/CHIKV_HIPPO/web2/web_resources/hit_poses.sdf']

>  <observation_longname>  (174) 
nan

>  <ConformerSites alias>  (174) 
nan

>  <CanonSites alias>  (174) 
nan

>  <CrystalformSites alias>  (174) 
nan

>  <Quatassemblies alias>  (174) 
nan

>  <Crystalforms alias>  (174) 
nan

$$$$
c1123k
     RDKit          3D

  6  6  0  0  0  0  0  0  0  0999 V2000
   14.3790   12.5120   11.5240 N   0  0  0  0  0  0  0  0  0  0  0  0
   14.6360   11.2700   11.1240 C   0  0  0  0  0  0  0  0  0  0  0  0
   14.8110   10.9360    9.8160 N   0  0  0  0  0  0  0  0  0  0  0  0
   15.0330    9.6100    9.7770 C   0  0  0  0  0  0  0  0  0  0  0  0
   14.9900    9.1140   11.0470 N   0  0  0  0  0  0  0  0  0  0  0  0
   14.7420   10.1870   11.8970 N   0  0  0  0  0  0  0  0  0  0  0  0
  2  1  1  0
  2  6  2  0
  6  5  1  0
  5  4  2  0
  4  3  1  0
  3  2  1  0
M  END
>  <id>  (175) 
5963

>  <inchikey>  (175) 
KLSJWNVTNUYHDU-UHFFFAOYSA-N

>  <alias>  (175) 
c1123k

>  <smiles>  (175) 
Nc1nnc[nH]1

>  <path>  (175) 
/opt/xchem-fragalysis-2/maxwin/CHIKV_Mac_20240920/aligned_files/c1123k/c1123k_hippo.pdb

>  <compound>  (175) 
KLSJWNVTNUYHDU-UHFFFAOYSA-N

>  <target>  (175) 
CHIKV_Mac

>  <tags>  (175) 
['[Other] Adenine site', 'hits', '[Other] fragment screen']

>  <reference>  (175) 
None

>  <exports>  (175) 
['/opt/xchem-fragalysis-2/maxwin/CHIKV_HIPPO/web_resources/hit_poses.sdf', '/opt/xchem-fragalysis-2/maxwin/CHIKV_HIPPO/web/web_resources/hit_poses.sdf', '/opt/xchem-fragalysis-2/maxwin/CHIKV_HIPPO/web2/web_resources/hit_poses.sdf']

>  <observation_longname>  (175) 
nan

>  <ConformerSites alias>  (175) 
nan

>  <CanonSites alias>  (175) 
nan

>  <CrystalformSites alias>  (175) 
nan

>  <Quatassemblies alias>  (175) 
nan

>  <Crystalforms alias>  (175) 
nan

$$$$
c1123i
     RDKit          3D

  6  6  0  0  0  0  0  0  0  0999 V2000
    0.3220    2.5560   17.0260 N   0  0  0  0  0  0  0  0  0  0  0  0
   -0.3220    1.9380   18.0040 C   0  0  0  0  0  0  0  0  0  0  0  0
   -0.5910    0.6010   17.9850 N   0  0  0  0  0  0  0  0  0  0  0  0
   -1.1810    0.3140   19.1650 C   0  0  0  0  0  0  0  0  0  0  0  0
   -1.2730    1.4300   19.8920 N   0  0  0  0  0  0  0  0  0  0  0  0
   -0.7330    2.4720   19.1400 N   0  0  0  0  0  0  0  0  0  0  0  0
  2  1  1  0
  2  6  2  0
  6  5  1  0
  5  4  2  0
  4  3  1  0
  3  2  1  0
M  END
>  <id>  (176) 
5964

>  <inchikey>  (176) 
KLSJWNVTNUYHDU-UHFFFAOYSA-N

>  <alias>  (176) 
c1123i

>  <smiles>  (176) 
Nc1nnc[nH]1

>  <path>  (176) 
/opt/xchem-fragalysis-2/maxwin/CHIKV_Mac_20240920/aligned_files/c1123i/c1123i_hippo.pdb

>  <compound>  (176) 
KLSJWNVTNUYHDU-UHFFFAOYSA-N

>  <target>  (176) 
CHIKV_Mac

>  <tags>  (176) 
['[Other] ignore', 'hits']

>  <reference>  (176) 
None

>  <exports>  (176) 
['/opt/xchem-fragalysis-2/maxwin/CHIKV_HIPPO/web_resources/hit_poses.sdf', '/opt/xchem-fragalysis-2/maxwin/CHIKV_HIPPO/web/web_resources/hit_poses.sdf', '/opt/xchem-fragalysis-2/maxwin/CHIKV_HIPPO/web2/web_resources/hit_poses.sdf']

>  <observation_longname>  (176) 
CHIKV_MacB-x1123_C_401_1_6w8q+A+201+1

>  <ConformerSites alias>  (176) 
3a - 6w8q/A/201

>  <CanonSites alias>  (176) 
3 - 6w8q/A/201/1

>  <CrystalformSites alias>  (176) 
F1c - z1123/C/401

>  <Quatassemblies alias>  (176) 
A1 - monomer

>  <Crystalforms alias>  (176) 
F1 - P31-4fold-NCS

$$$$
c1123j
     RDKit          3D

  6  6  0  0  0  0  0  0  0  0999 V2000
    0.0560   18.7190   -4.3890 N   0  0  0  0  0  0  0  0  0  0  0  0
    0.5730   17.5840   -4.8630 C   0  0  0  0  0  0  0  0  0  0  0  0
    1.9080   17.4160   -5.0810 N   0  0  0  0  0  0  0  0  0  0  0  0
    2.0580   16.1780   -5.5800 C   0  0  0  0  0  0  0  0  0  0  0  0
    0.8380   15.5690   -5.6710 N   0  0  0  0  0  0  0  0  0  0  0  0
   -0.0990   16.4840   -5.2060 N   0  0  0  0  0  0  0  0  0  0  0  0
  2  1  1  0
  2  6  2  0
  6  5  1  0
  5  4  2  0
  4  3  1  0
  3  2  1  0
M  END
>  <id>  (177) 
5965

>  <inchikey>  (177) 
KLSJWNVTNUYHDU-UHFFFAOYSA-N

>  <alias>  (177) 
c1123j

>  <smiles>  (177) 
Nc1nnc[nH]1

>  <path>  (177) 
/opt/xchem-fragalysis-2/maxwin/CHIKV_Mac_20240920/aligned_files/c1123j/c1123j_hippo.pdb

>  <compound>  (177) 
KLSJWNVTNUYHDU-UHFFFAOYSA-N

>  <target>  (177) 
CHIKV_Mac

>  <tags>  (177) 
['[Other] ignore', 'hits']

>  <reference>  (177) 
None

>  <exports>  (177) 
['/opt/xchem-fragalysis-2/maxwin/CHIKV_HIPPO/web_resources/hit_poses.sdf', '/opt/xchem-fragalysis-2/maxwin/CHIKV_HIPPO/web/web_resources/hit_poses.sdf', '/opt/xchem-fragalysis-2/maxwin/CHIKV_HIPPO/web2/web_resources/hit_poses.sdf']

>  <observation_longname>  (177) 
nan

>  <ConformerSites alias>  (177) 
nan

>  <CanonSites alias>  (177) 
nan

>  <CrystalformSites alias>  (177) 
nan

>  <Quatassemblies alias>  (177) 
nan

>  <Crystalforms alias>  (177) 
nan

$$$$
c1123f
     RDKit          3D

  6  6  0  0  0  0  0  0  0  0999 V2000
   14.3760   -8.1590    0.7930 N   0  0  0  0  0  0  0  0  0  0  0  0
   14.5590   -7.7150    2.0350 C   0  0  0  0  0  0  0  0  0  0  0  0
   13.5290   -7.3270    2.8370 N   0  0  0  0  0  0  0  0  0  0  0  0
   14.0730   -7.0070    4.0300 C   0  0  0  0  0  0  0  0  0  0  0  0
   15.4320   -7.1930    3.9740 N   0  0  0  0  0  0  0  0  0  0  0  0
   15.7140   -7.6440    2.6890 N   0  0  0  0  0  0  0  0  0  0  0  0
  2  1  1  0
  2  6  2  0
  6  5  1  0
  5  4  2  0
  4  3  1  0
  3  2  1  0
M  END
>  <id>  (178) 
5966

>  <inchikey>  (178) 
KLSJWNVTNUYHDU-UHFFFAOYSA-N

>  <alias>  (178) 
c1123f

>  <smiles>  (178) 
Nc1nnc[nH]1

>  <path>  (178) 
/opt/xchem-fragalysis-2/maxwin/CHIKV_Mac_20240920/aligned_files/c1123f/c1123f_hippo.pdb

>  <compound>  (178) 
KLSJWNVTNUYHDU-UHFFFAOYSA-N

>  <target>  (178) 
CHIKV_Mac

>  <tags>  (178) 
['[Other] ignore', 'hits']

>  <reference>  (178) 
None

>  <exports>  (178) 
['/opt/xchem-fragalysis-2/maxwin/CHIKV_HIPPO/web_resources/hit_poses.sdf', '/opt/xchem-fragalysis-2/maxwin/CHIKV_HIPPO/web/web_resources/hit_poses.sdf', '/opt/xchem-fragalysis-2/maxwin/CHIKV_HIPPO/web2/web_resources/hit_poses.sdf']

>  <observation_longname>  (178) 
nan

>  <ConformerSites alias>  (178) 
nan

>  <CanonSites alias>  (178) 
nan

>  <CrystalformSites alias>  (178) 
nan

>  <Quatassemblies alias>  (178) 
nan

>  <Crystalforms alias>  (178) 
nan

$$$$
c1123d
     RDKit          3D

  6  6  0  0  0  0  0  0  0  0999 V2000
   14.7510   -0.9720   19.2560 N   0  0  0  0  0  0  0  0  0  0  0  0
   15.9240   -1.4690   18.8490 C   0  0  0  0  0  0  0  0  0  0  0  0
   16.5020   -2.5620   19.4300 N   0  0  0  0  0  0  0  0  0  0  0  0
   17.5890   -2.8580   18.6910 C   0  0  0  0  0  0  0  0  0  0  0  0
   17.7050   -1.9540   17.6620 N   0  0  0  0  0  0  0  0  0  0  0  0
   16.6330   -1.0720   17.7910 N   0  0  0  0  0  0  0  0  0  0  0  0
  2  1  1  0
  2  6  2  0
  6  5  1  0
  5  4  2  0
  4  3  1  0
  3  2  1  0
M  END
>  <id>  (179) 
5967

>  <inchikey>  (179) 
KLSJWNVTNUYHDU-UHFFFAOYSA-N

>  <alias>  (179) 
c1123d

>  <smiles>  (179) 
Nc1nnc[nH]1

>  <path>  (179) 
/opt/xchem-fragalysis-2/maxwin/CHIKV_Mac_20240920/aligned_files/c1123d/c1123d_hippo.pdb

>  <compound>  (179) 
KLSJWNVTNUYHDU-UHFFFAOYSA-N

>  <target>  (179) 
CHIKV_Mac

>  <tags>  (179) 
['[Other] ignore', 'hits']

>  <reference>  (179) 
None

>  <exports>  (179) 
['/opt/xchem-fragalysis-2/maxwin/CHIKV_HIPPO/web_resources/hit_poses.sdf', '/opt/xchem-fragalysis-2/maxwin/CHIKV_HIPPO/web/web_resources/hit_poses.sdf', '/opt/xchem-fragalysis-2/maxwin/CHIKV_HIPPO/web2/web_resources/hit_poses.sdf']

>  <observation_longname>  (179) 
nan

>  <ConformerSites alias>  (179) 
nan

>  <CanonSites alias>  (179) 
nan

>  <CrystalformSites alias>  (179) 
nan

>  <Quatassemblies alias>  (179) 
nan

>  <Crystalforms alias>  (179) 
nan

$$$$
c1123e
     RDKit          3D

  6  6  0  0  0  0  0  0  0  0999 V2000
   16.4090    2.5920   14.7160 N   0  0  0  0  0  0  0  0  0  0  0  0
   17.5570    2.0770   15.1700 C   0  0  0  0  0  0  0  0  0  0  0  0
   18.7370    2.1960   14.4970 N   0  0  0  0  0  0  0  0  0  0  0  0
   19.6630    1.5510   15.2310 C   0  0  0  0  0  0  0  0  0  0  0  0
   19.0730    1.0310   16.3560 N   0  0  0  0  0  0  0  0  0  0  0  0
   17.7290    1.3840   16.2920 N   0  0  0  0  0  0  0  0  0  0  0  0
  2  1  1  0
  2  6  2  0
  6  5  1  0
  5  4  2  0
  4  3  1  0
  3  2  1  0
M  END
>  <id>  (180) 
5968

>  <inchikey>  (180) 
KLSJWNVTNUYHDU-UHFFFAOYSA-N

>  <alias>  (180) 
c1123e

>  <smiles>  (180) 
Nc1nnc[nH]1

>  <path>  (180) 
/opt/xchem-fragalysis-2/maxwin/CHIKV_Mac_20240920/aligned_files/c1123e/c1123e_hippo.pdb

>  <compound>  (180) 
KLSJWNVTNUYHDU-UHFFFAOYSA-N

>  <target>  (180) 
CHIKV_Mac

>  <tags>  (180) 
['hits', '[Other] Trp148 site', '[Other] fragment screen']

>  <reference>  (180) 
None

>  <exports>  (180) 
['/opt/xchem-fragalysis-2/maxwin/CHIKV_HIPPO/web_resources/hit_poses.sdf', '/opt/xchem-fragalysis-2/maxwin/CHIKV_HIPPO/web/web_resources/hit_poses.sdf', '/opt/xchem-fragalysis-2/maxwin/CHIKV_HIPPO/web2/web_resources/hit_poses.sdf']

>  <observation_longname>  (180) 
nan

>  <ConformerSites alias>  (180) 
nan

>  <CanonSites alias>  (180) 
nan

>  <CrystalformSites alias>  (180) 
nan

>  <Quatassemblies alias>  (180) 
nan

>  <Crystalforms alias>  (180) 
nan

$$$$
c1123l
     RDKit          3D

  6  6  0  0  0  0  0  0  0  0999 V2000
    4.5060    9.6960   17.8720 N   0  0  0  0  0  0  0  0  0  0  0  0
    5.2120    8.7690   17.2340 C   0  0  0  0  0  0  0  0  0  0  0  0
    4.6220    7.7400   16.5520 N   0  0  0  0  0  0  0  0  0  0  0  0
    5.6240    6.9600   16.0960 C   0  0  0  0  0  0  0  0  0  0  0  0
    6.8300    7.5140   16.4810 N   0  0  0  0  0  0  0  0  0  0  0  0
    6.5320    8.6650   17.2030 N   0  0  0  0  0  0  0  0  0  0  0  0
  2  1  1  0
  2  6  2  0
  6  5  1  0
  5  4  2  0
  4  3  1  0
  3  2  1  0
M  END
>  <id>  (181) 
5969

>  <inchikey>  (181) 
KLSJWNVTNUYHDU-UHFFFAOYSA-N

>  <alias>  (181) 
c1123l

>  <smiles>  (181) 
Nc1nnc[nH]1

>  <path>  (181) 
/opt/xchem-fragalysis-2/maxwin/CHIKV_Mac_20240920/aligned_files/c1123l/c1123l_hippo.pdb

>  <compound>  (181) 
KLSJWNVTNUYHDU-UHFFFAOYSA-N

>  <target>  (181) 
CHIKV_Mac

>  <tags>  (181) 
['hits', '[Other] Ribose site', '[Other] fragment screen']

>  <reference>  (181) 
None

>  <exports>  (181) 
['/opt/xchem-fragalysis-2/maxwin/CHIKV_HIPPO/web_resources/hit_poses.sdf', '/opt/xchem-fragalysis-2/maxwin/CHIKV_HIPPO/web/web_resources/hit_poses.sdf', '/opt/xchem-fragalysis-2/maxwin/CHIKV_HIPPO/web2/web_resources/hit_poses.sdf']

>  <observation_longname>  (181) 
nan

>  <ConformerSites alias>  (181) 
nan

>  <CanonSites alias>  (181) 
nan

>  <CrystalformSites alias>  (181) 
nan

>  <Quatassemblies alias>  (181) 
nan

>  <Crystalforms alias>  (181) 
nan

$$$$
c1125b
     RDKit          3D

  6  5  0  0  0  0  0  0  0  0999 V2000
   20.3660   -0.9980   16.5370 N   0  0  0  0  0  0  0  0  0  0  0  0
   20.3700   -1.9220   15.8690 C   0  0  0  0  0  0  0  0  0  0  0  0
   20.3110   -3.0340   14.9260 C   0  0  0  0  0  0  0  0  0  0  0  0
   21.1870   -2.7730   13.7090 C   0  0  0  0  0  0  0  0  0  0  0  0
   20.7340   -2.8800   12.5650 O   0  0  0  0  0  0  0  0  0  0  0  0
   22.4450   -2.4360   13.9540 N   0  0  0  0  0  0  0  0  0  0  0  0
  6  4  1  0
  5  4  2  0
  4  3  1  0
  3  2  1  0
  2  1  3  0
M  END
>  <id>  (182) 
5970

>  <inchikey>  (182) 
DGJMPUGMZIKDRO-UHFFFAOYSA-N

>  <alias>  (182) 
c1125b

>  <smiles>  (182) 
N#CCC(N)=O

>  <path>  (182) 
/opt/xchem-fragalysis-2/maxwin/CHIKV_Mac_20240920/aligned_files/c1125b/c1125b_hippo.pdb

>  <compound>  (182) 
DGJMPUGMZIKDRO-UHFFFAOYSA-N

>  <target>  (182) 
CHIKV_Mac

>  <tags>  (182) 
['[Other] ignore', 'hits']

>  <reference>  (182) 
None

>  <exports>  (182) 
['/opt/xchem-fragalysis-2/maxwin/CHIKV_HIPPO/web_resources/hit_poses.sdf', '/opt/xchem-fragalysis-2/maxwin/CHIKV_HIPPO/web/web_resources/hit_poses.sdf', '/opt/xchem-fragalysis-2/maxwin/CHIKV_HIPPO/web2/web_resources/hit_poses.sdf']

>  <observation_longname>  (182) 
nan

>  <ConformerSites alias>  (182) 
nan

>  <CanonSites alias>  (182) 
nan

>  <CrystalformSites alias>  (182) 
nan

>  <Quatassemblies alias>  (182) 
nan

>  <Crystalforms alias>  (182) 
nan

$$$$
c1125d
     RDKit          3D

  6  5  0  0  0  0  0  0  0  0999 V2000
   14.5920   -3.1800   -6.0040 N   0  0  0  0  0  0  0  0  0  0  0  0
   15.6130   -2.8120   -6.3340 C   0  0  0  0  0  0  0  0  0  0  0  0
   16.9650   -2.4520   -6.7480 C   0  0  0  0  0  0  0  0  0  0  0  0
   17.1170   -0.9440   -6.8840 C   0  0  0  0  0  0  0  0  0  0  0  0
   16.1340   -0.2150   -7.0320 O   0  0  0  0  0  0  0  0  0  0  0  0
   18.3560   -0.4750   -6.8340 N   0  0  0  0  0  0  0  0  0  0  0  0
  6  4  1  0
  5  4  2  0
  4  3  1  0
  3  2  1  0
  2  1  3  0
M  END
>  <id>  (183) 
5971

>  <inchikey>  (183) 
DGJMPUGMZIKDRO-UHFFFAOYSA-N

>  <alias>  (183) 
c1125d

>  <smiles>  (183) 
N#CCC(N)=O

>  <path>  (183) 
/opt/xchem-fragalysis-2/maxwin/CHIKV_Mac_20240920/aligned_files/c1125d/c1125d_hippo.pdb

>  <compound>  (183) 
DGJMPUGMZIKDRO-UHFFFAOYSA-N

>  <target>  (183) 
CHIKV_Mac

>  <tags>  (183) 
['[Other] ignore', 'hits']

>  <reference>  (183) 
None

>  <exports>  (183) 
['/opt/xchem-fragalysis-2/maxwin/CHIKV_HIPPO/web_resources/hit_poses.sdf', '/opt/xchem-fragalysis-2/maxwin/CHIKV_HIPPO/web/web_resources/hit_poses.sdf', '/opt/xchem-fragalysis-2/maxwin/CHIKV_HIPPO/web2/web_resources/hit_poses.sdf']

>  <observation_longname>  (183) 
nan

>  <ConformerSites alias>  (183) 
nan

>  <CanonSites alias>  (183) 
nan

>  <CrystalformSites alias>  (183) 
nan

>  <Quatassemblies alias>  (183) 
nan

>  <Crystalforms alias>  (183) 
nan

$$$$
c1125a
     RDKit          3D

  6  5  0  0  0  0  0  0  0  0999 V2000
   15.5890    3.5230   10.0810 N   0  0  0  0  0  0  0  0  0  0  0  0
   15.9350    3.5390   11.1550 C   0  0  0  0  0  0  0  0  0  0  0  0
   16.3510    3.4200   12.5470 C   0  0  0  0  0  0  0  0  0  0  0  0
   17.8440    3.6550   12.6940 C   0  0  0  0  0  0  0  0  0  0  0  0
   18.5020    4.1790   11.7870 O   0  0  0  0  0  0  0  0  0  0  0  0
   18.3740    3.2830   13.8520 N   0  0  0  0  0  0  0  0  0  0  0  0
  6  4  1  0
  5  4  2  0
  4  3  1  0
  3  2  1  0
  2  1  3  0
M  END
>  <id>  (184) 
5972

>  <inchikey>  (184) 
DGJMPUGMZIKDRO-UHFFFAOYSA-N

>  <alias>  (184) 
c1125a

>  <smiles>  (184) 
N#CCC(N)=O

>  <path>  (184) 
/opt/xchem-fragalysis-2/maxwin/CHIKV_Mac_20240920/aligned_files/c1125a/c1125a_hippo.pdb

>  <compound>  (184) 
DGJMPUGMZIKDRO-UHFFFAOYSA-N

>  <target>  (184) 
CHIKV_Mac

>  <tags>  (184) 
['[Other] Oxyanion site', 'hits', '[Other] fragment screen']

>  <reference>  (184) 
None

>  <exports>  (184) 
['/opt/xchem-fragalysis-2/maxwin/CHIKV_HIPPO/web_resources/hit_poses.sdf', '/opt/xchem-fragalysis-2/maxwin/CHIKV_HIPPO/web/web_resources/hit_poses.sdf', '/opt/xchem-fragalysis-2/maxwin/CHIKV_HIPPO/web2/web_resources/hit_poses.sdf']

>  <observation_longname>  (184) 
nan

>  <ConformerSites alias>  (184) 
nan

>  <CanonSites alias>  (184) 
nan

>  <CrystalformSites alias>  (184) 
nan

>  <Quatassemblies alias>  (184) 
nan

>  <Crystalforms alias>  (184) 
nan

$$$$
c1125c
     RDKit          3D

  6  5  0  0  0  0  0  0  0  0999 V2000
   15.7420    3.4600   10.4860 N   0  0  0  0  0  0  0  0  0  0  0  0
   16.0770    3.5720   11.5610 C   0  0  0  0  0  0  0  0  0  0  0  0
   16.6240    3.6040   12.9140 C   0  0  0  0  0  0  0  0  0  0  0  0
   18.1380    3.7500   12.8890 C   0  0  0  0  0  0  0  0  0  0  0  0
   18.7430    4.0230   11.8410 O   0  0  0  0  0  0  0  0  0  0  0  0
   18.7540    3.5760   14.0480 N   0  0  0  0  0  0  0  0  0  0  0  0
  6  4  1  0
  5  4  2  0
  4  3  1  0
  3  2  1  0
  2  1  3  0
M  END
>  <id>  (185) 
5973

>  <inchikey>  (185) 
DGJMPUGMZIKDRO-UHFFFAOYSA-N

>  <alias>  (185) 
c1125c

>  <smiles>  (185) 
N#CCC(N)=O

>  <path>  (185) 
/opt/xchem-fragalysis-2/maxwin/CHIKV_Mac_20240920/aligned_files/c1125c/c1125c_hippo.pdb

>  <compound>  (185) 
DGJMPUGMZIKDRO-UHFFFAOYSA-N

>  <target>  (185) 
CHIKV_Mac

>  <tags>  (185) 
['[Other] Oxyanion site', 'hits', '[Other] fragment screen']

>  <reference>  (185) 
None

>  <exports>  (185) 
['/opt/xchem-fragalysis-2/maxwin/CHIKV_HIPPO/web_resources/hit_poses.sdf', '/opt/xchem-fragalysis-2/maxwin/CHIKV_HIPPO/web/web_resources/hit_poses.sdf', '/opt/xchem-fragalysis-2/maxwin/CHIKV_HIPPO/web2/web_resources/hit_poses.sdf']

>  <observation_longname>  (185) 
nan

>  <ConformerSites alias>  (185) 
nan

>  <CanonSites alias>  (185) 
nan

>  <CrystalformSites alias>  (185) 
nan

>  <Quatassemblies alias>  (185) 
nan

>  <Crystalforms alias>  (185) 
nan

$$$$
c1131b
     RDKit          3D

  7  7  0  0  0  0  0  0  0  0999 V2000
    8.9040    8.0270   14.6280 O   0  0  0  0  0  0  0  0  0  0  0  0
    7.7510    7.8750   15.0210 C   0  0  0  0  0  0  0  0  0  0  0  0
    6.9500    8.8990   15.2700 N   0  0  0  0  0  0  0  0  0  0  0  0
    5.5710    8.8200   15.7520 C   0  0  0  0  0  0  0  0  0  0  0  0
    5.3150    7.4560   16.3630 C   0  0  0  0  0  0  0  0  0  0  0  0
    5.7940    6.3770   15.4740 N   0  0  0  0  0  0  0  0  0  0  0  0
    7.2280    6.4800   15.1950 C   0  0  0  0  0  0  0  0  0  0  0  0
  2  1  2  0
  2  7  1  0
  7  6  1  0
  6  5  1  0
  5  4  1  0
  4  3  1  0
  3  2  1  0
M  END
>  <id>  (186) 
5974

>  <inchikey>  (186) 
IWELDVXSEVIIGI-UHFFFAOYSA-N

>  <alias>  (186) 
c1131b

>  <smiles>  (186) 
O=C1CNCCN1

>  <path>  (186) 
/opt/xchem-fragalysis-2/maxwin/CHIKV_Mac_20240920/aligned_files/c1131b/c1131b_hippo.pdb

>  <compound>  (186) 
IWELDVXSEVIIGI-UHFFFAOYSA-N

>  <target>  (186) 
CHIKV_Mac

>  <tags>  (186) 
['hits', '[Other] Ribose site', '[Other] fragment screen']

>  <reference>  (186) 
None

>  <exports>  (186) 
['/opt/xchem-fragalysis-2/maxwin/CHIKV_HIPPO/web_resources/hit_poses.sdf', '/opt/xchem-fragalysis-2/maxwin/CHIKV_HIPPO/web/web_resources/hit_poses.sdf', '/opt/xchem-fragalysis-2/maxwin/CHIKV_HIPPO/web2/web_resources/hit_poses.sdf']

>  <observation_longname>  (186) 
nan

>  <ConformerSites alias>  (186) 
nan

>  <CanonSites alias>  (186) 
nan

>  <CrystalformSites alias>  (186) 
nan

>  <Quatassemblies alias>  (186) 
nan

>  <Crystalforms alias>  (186) 
nan

$$$$
c1131d
     RDKit          3D

  7  7  0  0  0  0  0  0  0  0999 V2000
    8.6100    8.2080   14.3380 O   0  0  0  0  0  0  0  0  0  0  0  0
    7.5330    7.9660   14.8730 C   0  0  0  0  0  0  0  0  0  0  0  0
    6.6800    8.9170   15.1980 N   0  0  0  0  0  0  0  0  0  0  0  0
    5.4530    8.7290   15.9430 C   0  0  0  0  0  0  0  0  0  0  0  0
    5.5080    7.4150   16.6720 C   0  0  0  0  0  0  0  0  0  0  0  0
    5.8460    6.3470   15.7370 N   0  0  0  0  0  0  0  0  0  0  0  0
    7.1770    6.5370   15.1640 C   0  0  0  0  0  0  0  0  0  0  0  0
  2  1  2  0
  2  7  1  0
  7  6  1  0
  6  5  1  0
  5  4  1  0
  4  3  1  0
  3  2  1  0
M  END
>  <id>  (187) 
5975

>  <inchikey>  (187) 
IWELDVXSEVIIGI-UHFFFAOYSA-N

>  <alias>  (187) 
c1131d

>  <smiles>  (187) 
O=C1CNCCN1

>  <path>  (187) 
/opt/xchem-fragalysis-2/maxwin/CHIKV_Mac_20240920/aligned_files/c1131d/c1131d_hippo.pdb

>  <compound>  (187) 
IWELDVXSEVIIGI-UHFFFAOYSA-N

>  <target>  (187) 
CHIKV_Mac

>  <tags>  (187) 
['hits', '[Other] Ribose site', '[Other] fragment screen']

>  <reference>  (187) 
None

>  <exports>  (187) 
['/opt/xchem-fragalysis-2/maxwin/CHIKV_HIPPO/web_resources/hit_poses.sdf', '/opt/xchem-fragalysis-2/maxwin/CHIKV_HIPPO/web/web_resources/hit_poses.sdf', '/opt/xchem-fragalysis-2/maxwin/CHIKV_HIPPO/web2/web_resources/hit_poses.sdf']

>  <observation_longname>  (187) 
nan

>  <ConformerSites alias>  (187) 
nan

>  <CanonSites alias>  (187) 
nan

>  <CrystalformSites alias>  (187) 
nan

>  <Quatassemblies alias>  (187) 
nan

>  <Crystalforms alias>  (187) 
nan

$$$$
c1131g
     RDKit          3D

  7  7  0  0  0  0  0  0  0  0999 V2000
    8.9970    7.8360   14.8980 O   0  0  0  0  0  0  0  0  0  0  0  0
    7.8540    7.6500   15.3150 C   0  0  0  0  0  0  0  0  0  0  0  0
    7.2340    6.4950   15.1770 N   0  0  0  0  0  0  0  0  0  0  0  0
    5.7920    6.2700   15.3790 C   0  0  0  0  0  0  0  0  0  0  0  0
    5.2260    7.3330   16.3030 C   0  0  0  0  0  0  0  0  0  0  0  0
    5.6800    8.6980   15.9430 N   0  0  0  0  0  0  0  0  0  0  0  0
    7.1400    8.7830   15.9950 C   0  0  0  0  0  0  0  0  0  0  0  0
  2  1  2  0
  2  7  1  0
  7  6  1  0
  6  5  1  0
  5  4  1  0
  4  3  1  0
  3  2  1  0
M  END
>  <id>  (188) 
5976

>  <inchikey>  (188) 
IWELDVXSEVIIGI-UHFFFAOYSA-N

>  <alias>  (188) 
c1131g

>  <smiles>  (188) 
O=C1CNCCN1

>  <path>  (188) 
/opt/xchem-fragalysis-2/maxwin/CHIKV_Mac_20240920/aligned_files/c1131g/c1131g_hippo.pdb

>  <compound>  (188) 
IWELDVXSEVIIGI-UHFFFAOYSA-N

>  <target>  (188) 
CHIKV_Mac

>  <tags>  (188) 
['hits', '[Other] Ribose site', '[Other] fragment screen']

>  <reference>  (188) 
None

>  <exports>  (188) 
['/opt/xchem-fragalysis-2/maxwin/CHIKV_HIPPO/web_resources/hit_poses.sdf', '/opt/xchem-fragalysis-2/maxwin/CHIKV_HIPPO/web/web_resources/hit_poses.sdf', '/opt/xchem-fragalysis-2/maxwin/CHIKV_HIPPO/web2/web_resources/hit_poses.sdf']

>  <observation_longname>  (188) 
nan

>  <ConformerSites alias>  (188) 
nan

>  <CanonSites alias>  (188) 
nan

>  <CrystalformSites alias>  (188) 
nan

>  <Quatassemblies alias>  (188) 
nan

>  <Crystalforms alias>  (188) 
nan

$$$$
c1131a
     RDKit          3D

  7  7  0  0  0  0  0  0  0  0999 V2000
   18.5390    3.8430   11.3960 O   0  0  0  0  0  0  0  0  0  0  0  0
   17.6620    3.7560   12.2510 C   0  0  0  0  0  0  0  0  0  0  0  0
   16.3810    3.7580   11.9440 N   0  0  0  0  0  0  0  0  0  0  0  0
   15.2850    3.5850   12.8810 C   0  0  0  0  0  0  0  0  0  0  0  0
   15.7950    2.9320   14.1400 C   0  0  0  0  0  0  0  0  0  0  0  0
   16.9620    3.6760   14.6490 N   0  0  0  0  0  0  0  0  0  0  0  0
   18.0670    3.6440   13.6930 C   0  0  0  0  0  0  0  0  0  0  0  0
  2  1  2  0
  2  7  1  0
  7  6  1  0
  6  5  1  0
  5  4  1  0
  4  3  1  0
  3  2  1  0
M  END
>  <id>  (189) 
5977

>  <inchikey>  (189) 
IWELDVXSEVIIGI-UHFFFAOYSA-N

>  <alias>  (189) 
c1131a

>  <smiles>  (189) 
O=C1CNCCN1

>  <path>  (189) 
/opt/xchem-fragalysis-2/maxwin/CHIKV_Mac_20240920/aligned_files/c1131a/c1131a_hippo.pdb

>  <compound>  (189) 
IWELDVXSEVIIGI-UHFFFAOYSA-N

>  <target>  (189) 
CHIKV_Mac

>  <tags>  (189) 
['[Other] Oxyanion site', 'hits', '[Other] Trp148 site', '[Other] fragment screen']

>  <reference>  (189) 
None

>  <exports>  (189) 
['/opt/xchem-fragalysis-2/maxwin/CHIKV_HIPPO/web_resources/hit_poses.sdf', '/opt/xchem-fragalysis-2/maxwin/CHIKV_HIPPO/web/web_resources/hit_poses.sdf', '/opt/xchem-fragalysis-2/maxwin/CHIKV_HIPPO/web2/web_resources/hit_poses.sdf']

>  <observation_longname>  (189) 
nan

>  <ConformerSites alias>  (189) 
nan

>  <CanonSites alias>  (189) 
nan

>  <CrystalformSites alias>  (189) 
nan

>  <Quatassemblies alias>  (189) 
nan

>  <Crystalforms alias>  (189) 
nan

$$$$
c1131c
     RDKit          3D

  7  7  0  0  0  0  0  0  0  0999 V2000
   18.5240    4.1910   11.6060 O   0  0  0  0  0  0  0  0  0  0  0  0
   17.6290    3.7650   12.3320 C   0  0  0  0  0  0  0  0  0  0  0  0
   17.8840    3.1270   13.4620 N   0  0  0  0  0  0  0  0  0  0  0  0
   16.9300    2.8820   14.5310 C   0  0  0  0  0  0  0  0  0  0  0  0
   15.6710    3.6770   14.2780 C   0  0  0  0  0  0  0  0  0  0  0  0
   15.2060    3.5130   12.8920 N   0  0  0  0  0  0  0  0  0  0  0  0
   16.2000    3.9940   11.9290 C   0  0  0  0  0  0  0  0  0  0  0  0
  2  1  2  0
  2  7  1  0
  7  6  1  0
  6  5  1  0
  5  4  1  0
  4  3  1  0
  3  2  1  0
M  END
>  <id>  (190) 
5978

>  <inchikey>  (190) 
IWELDVXSEVIIGI-UHFFFAOYSA-N

>  <alias>  (190) 
c1131c

>  <smiles>  (190) 
O=C1CNCCN1

>  <path>  (190) 
/opt/xchem-fragalysis-2/maxwin/CHIKV_Mac_20240920/aligned_files/c1131c/c1131c_hippo.pdb

>  <compound>  (190) 
IWELDVXSEVIIGI-UHFFFAOYSA-N

>  <target>  (190) 
CHIKV_Mac

>  <tags>  (190) 
['[Other] Oxyanion site', 'hits', '[Other] Trp148 site', '[Other] fragment screen']

>  <reference>  (190) 
None

>  <exports>  (190) 
['/opt/xchem-fragalysis-2/maxwin/CHIKV_HIPPO/web_resources/hit_poses.sdf', '/opt/xchem-fragalysis-2/maxwin/CHIKV_HIPPO/web/web_resources/hit_poses.sdf', '/opt/xchem-fragalysis-2/maxwin/CHIKV_HIPPO/web2/web_resources/hit_poses.sdf']

>  <observation_longname>  (190) 
nan

>  <ConformerSites alias>  (190) 
nan

>  <CanonSites alias>  (190) 
nan

>  <CrystalformSites alias>  (190) 
nan

>  <Quatassemblies alias>  (190) 
nan

>  <Crystalforms alias>  (190) 
nan

$$$$
c1131e
     RDKit          3D

  7  7  0  0  0  0  0  0  0  0999 V2000
   18.5260    4.4420   11.5140 O   0  0  0  0  0  0  0  0  0  0  0  0
   17.5680    4.0570   12.1760 C   0  0  0  0  0  0  0  0  0  0  0  0
   17.6930    3.6810   13.4370 N   0  0  0  0  0  0  0  0  0  0  0  0
   16.6060    3.3120   14.3350 C   0  0  0  0  0  0  0  0  0  0  0  0
   15.2960    3.8020   13.7670 C   0  0  0  0  0  0  0  0  0  0  0  0
   15.1540    3.4240   12.3570 N   0  0  0  0  0  0  0  0  0  0  0  0
   16.2140    3.9940   11.5250 C   0  0  0  0  0  0  0  0  0  0  0  0
  2  1  2  0
  2  7  1  0
  7  6  1  0
  6  5  1  0
  5  4  1  0
  4  3  1  0
  3  2  1  0
M  END
>  <id>  (191) 
5979

>  <inchikey>  (191) 
IWELDVXSEVIIGI-UHFFFAOYSA-N

>  <alias>  (191) 
c1131e

>  <smiles>  (191) 
O=C1CNCCN1

>  <path>  (191) 
/opt/xchem-fragalysis-2/maxwin/CHIKV_Mac_20240920/aligned_files/c1131e/c1131e_hippo.pdb

>  <compound>  (191) 
IWELDVXSEVIIGI-UHFFFAOYSA-N

>  <target>  (191) 
CHIKV_Mac

>  <tags>  (191) 
['[Other] Oxyanion site', 'hits', '[Other] Trp148 site', '[Other] fragment screen']

>  <reference>  (191) 
None

>  <exports>  (191) 
['/opt/xchem-fragalysis-2/maxwin/CHIKV_HIPPO/web_resources/hit_poses.sdf', '/opt/xchem-fragalysis-2/maxwin/CHIKV_HIPPO/web/web_resources/hit_poses.sdf', '/opt/xchem-fragalysis-2/maxwin/CHIKV_HIPPO/web2/web_resources/hit_poses.sdf']

>  <observation_longname>  (191) 
nan

>  <ConformerSites alias>  (191) 
nan

>  <CanonSites alias>  (191) 
nan

>  <CrystalformSites alias>  (191) 
nan

>  <Quatassemblies alias>  (191) 
nan

>  <Crystalforms alias>  (191) 
nan

$$$$
c1131f
     RDKit          3D

  7  7  0  0  0  0  0  0  0  0999 V2000
   18.4520    4.3250   11.6360 O   0  0  0  0  0  0  0  0  0  0  0  0
   17.5480    3.8470   12.3080 C   0  0  0  0  0  0  0  0  0  0  0  0
   17.7740    3.2560   13.4700 N   0  0  0  0  0  0  0  0  0  0  0  0
   16.7620    2.8050   14.4050 C   0  0  0  0  0  0  0  0  0  0  0  0
   15.4610    3.5020   14.0970 C   0  0  0  0  0  0  0  0  0  0  0  0
   15.1240    3.3550   12.6760 N   0  0  0  0  0  0  0  0  0  0  0  0
   16.1400    3.9340   11.7930 C   0  0  0  0  0  0  0  0  0  0  0  0
  2  1  2  0
  2  7  1  0
  7  6  1  0
  6  5  1  0
  5  4  1  0
  4  3  1  0
  3  2  1  0
M  END
>  <id>  (192) 
5980

>  <inchikey>  (192) 
IWELDVXSEVIIGI-UHFFFAOYSA-N

>  <alias>  (192) 
c1131f

>  <smiles>  (192) 
O=C1CNCCN1

>  <path>  (192) 
/opt/xchem-fragalysis-2/maxwin/CHIKV_Mac_20240920/aligned_files/c1131f/c1131f_hippo.pdb

>  <compound>  (192) 
IWELDVXSEVIIGI-UHFFFAOYSA-N

>  <target>  (192) 
CHIKV_Mac

>  <tags>  (192) 
['[Other] Oxyanion site', 'hits', '[Other] Trp148 site', '[Other] fragment screen']

>  <reference>  (192) 
None

>  <exports>  (192) 
['/opt/xchem-fragalysis-2/maxwin/CHIKV_HIPPO/web_resources/hit_poses.sdf', '/opt/xchem-fragalysis-2/maxwin/CHIKV_HIPPO/web/web_resources/hit_poses.sdf', '/opt/xchem-fragalysis-2/maxwin/CHIKV_HIPPO/web2/web_resources/hit_poses.sdf']

>  <observation_longname>  (192) 
nan

>  <ConformerSites alias>  (192) 
nan

>  <CanonSites alias>  (192) 
nan

>  <CrystalformSites alias>  (192) 
nan

>  <Quatassemblies alias>  (192) 
nan

>  <Crystalforms alias>  (192) 
nan

$$$$
c1132a
     RDKit          3D

  7  7  0  0  0  0  0  0  0  0999 V2000
   14.3350   12.6550   11.7720 N   0  0  0  0  0  0  0  0  0  0  0  0
   14.5690   11.4040   11.3660 C   0  0  0  0  0  0  0  0  0  0  0  0
   14.6570   10.4410   12.3150 N   0  0  0  0  0  0  0  0  0  0  0  0
   14.8940    9.1950   11.8780 C   0  0  0  0  0  0  0  0  0  0  0  0
   15.0560    8.8750   10.5500 C   0  0  0  0  0  0  0  0  0  0  0  0
   14.9530    9.9270    9.6610 C   0  0  0  0  0  0  0  0  0  0  0  0
   14.7070   11.1920   10.0360 N   0  0  0  0  0  0  0  0  0  0  0  0
  2  1  1  0
  2  7  2  0
  7  6  1  0
  6  5  2  0
  5  4  1  0
  4  3  2  0
  3  2  1  0
M  END
>  <id>  (193) 
5981

>  <inchikey>  (193) 
LJXQPZWIHJMPQQ-UHFFFAOYSA-N

>  <alias>  (193) 
c1132a

>  <smiles>  (193) 
Nc1ncccn1

>  <path>  (193) 
/opt/xchem-fragalysis-2/maxwin/CHIKV_Mac_20240920/aligned_files/c1132a/c1132a_hippo.pdb

>  <compound>  (193) 
LJXQPZWIHJMPQQ-UHFFFAOYSA-N

>  <target>  (193) 
CHIKV_Mac

>  <tags>  (193) 
['[Other] Adenine site', 'hits', '[Other] fragment screen']

>  <reference>  (193) 
None

>  <exports>  (193) 
['/opt/xchem-fragalysis-2/maxwin/CHIKV_HIPPO/web_resources/hit_poses.sdf', '/opt/xchem-fragalysis-2/maxwin/CHIKV_HIPPO/web/web_resources/hit_poses.sdf', '/opt/xchem-fragalysis-2/maxwin/CHIKV_HIPPO/web2/web_resources/hit_poses.sdf']

>  <observation_longname>  (193) 
nan

>  <ConformerSites alias>  (193) 
nan

>  <CanonSites alias>  (193) 
nan

>  <CrystalformSites alias>  (193) 
nan

>  <Quatassemblies alias>  (193) 
nan

>  <Crystalforms alias>  (193) 
nan

$$$$
c1132b
     RDKit          3D

  7  7  0  0  0  0  0  0  0  0999 V2000
   15.1030    8.6100   10.1280 N   0  0  0  0  0  0  0  0  0  0  0  0
   14.8480    9.7210   10.8220 C   0  0  0  0  0  0  0  0  0  0  0  0
   14.6030   10.8570   10.1220 N   0  0  0  0  0  0  0  0  0  0  0  0
   14.3280   11.9500   10.8510 C   0  0  0  0  0  0  0  0  0  0  0  0
   14.2950   11.9570   12.2280 C   0  0  0  0  0  0  0  0  0  0  0  0
   14.5620   10.7560   12.8460 C   0  0  0  0  0  0  0  0  0  0  0  0
   14.8410    9.6270   12.1760 N   0  0  0  0  0  0  0  0  0  0  0  0
  2  1  1  0
  2  7  2  0
  7  6  1  0
  6  5  2  0
  5  4  1  0
  4  3  2  0
  3  2  1  0
M  END
>  <id>  (194) 
5982

>  <inchikey>  (194) 
LJXQPZWIHJMPQQ-UHFFFAOYSA-N

>  <alias>  (194) 
c1132b

>  <smiles>  (194) 
Nc1ncccn1

>  <path>  (194) 
/opt/xchem-fragalysis-2/maxwin/CHIKV_Mac_20240920/aligned_files/c1132b/c1132b_hippo.pdb

>  <compound>  (194) 
LJXQPZWIHJMPQQ-UHFFFAOYSA-N

>  <target>  (194) 
CHIKV_Mac

>  <tags>  (194) 
['[Other] Adenine site', 'hits', '[Other] fragment screen']

>  <reference>  (194) 
None

>  <exports>  (194) 
['/opt/xchem-fragalysis-2/maxwin/CHIKV_HIPPO/web_resources/hit_poses.sdf', '/opt/xchem-fragalysis-2/maxwin/CHIKV_HIPPO/web/web_resources/hit_poses.sdf', '/opt/xchem-fragalysis-2/maxwin/CHIKV_HIPPO/web2/web_resources/hit_poses.sdf']

>  <observation_longname>  (194) 
nan

>  <ConformerSites alias>  (194) 
nan

>  <CanonSites alias>  (194) 
nan

>  <CrystalformSites alias>  (194) 
nan

>  <Quatassemblies alias>  (194) 
nan

>  <Crystalforms alias>  (194) 
nan

$$$$
c1132e
     RDKit          3D

  7  7  0  0  0  0  0  0  0  0999 V2000
   14.2360   12.7790   11.5160 N   0  0  0  0  0  0  0  0  0  0  0  0
   14.6380   11.5390   11.1980 C   0  0  0  0  0  0  0  0  0  0  0  0
   14.8550   10.6670   12.2160 N   0  0  0  0  0  0  0  0  0  0  0  0
   15.1860    9.4150   11.8610 C   0  0  0  0  0  0  0  0  0  0  0  0
   15.3180    9.0070   10.5540 C   0  0  0  0  0  0  0  0  0  0  0  0
   15.0950    9.9740    9.5950 C   0  0  0  0  0  0  0  0  0  0  0  0
   14.7540   11.2390    9.8870 N   0  0  0  0  0  0  0  0  0  0  0  0
  2  1  1  0
  2  7  2  0
  7  6  1  0
  6  5  2  0
  5  4  1  0
  4  3  2  0
  3  2  1  0
M  END
>  <id>  (195) 
5983

>  <inchikey>  (195) 
LJXQPZWIHJMPQQ-UHFFFAOYSA-N

>  <alias>  (195) 
c1132e

>  <smiles>  (195) 
Nc1ncccn1

>  <path>  (195) 
/opt/xchem-fragalysis-2/maxwin/CHIKV_Mac_20240920/aligned_files/c1132e/c1132e_hippo.pdb

>  <compound>  (195) 
LJXQPZWIHJMPQQ-UHFFFAOYSA-N

>  <target>  (195) 
CHIKV_Mac

>  <tags>  (195) 
['[Other] Adenine site', 'hits', '[Other] fragment screen']

>  <reference>  (195) 
None

>  <exports>  (195) 
['/opt/xchem-fragalysis-2/maxwin/CHIKV_HIPPO/web_resources/hit_poses.sdf', '/opt/xchem-fragalysis-2/maxwin/CHIKV_HIPPO/web/web_resources/hit_poses.sdf', '/opt/xchem-fragalysis-2/maxwin/CHIKV_HIPPO/web2/web_resources/hit_poses.sdf']

>  <observation_longname>  (195) 
nan

>  <ConformerSites alias>  (195) 
nan

>  <CanonSites alias>  (195) 
nan

>  <CrystalformSites alias>  (195) 
nan

>  <Quatassemblies alias>  (195) 
nan

>  <Crystalforms alias>  (195) 
nan

$$$$
c1132f
     RDKit          3D

  7  7  0  0  0  0  0  0  0  0999 V2000
   18.3620   13.7270   12.5280 N   0  0  0  0  0  0  0  0  0  0  0  0
   18.9450   12.8280   11.7270 C   0  0  0  0  0  0  0  0  0  0  0  0
   18.1760   11.8140   11.2570 N   0  0  0  0  0  0  0  0  0  0  0  0
   18.7900   10.9240   10.4630 C   0  0  0  0  0  0  0  0  0  0  0  0
   20.1290   11.0000   10.1260 C   0  0  0  0  0  0  0  0  0  0  0  0
   20.8240   12.0660   10.6560 C   0  0  0  0  0  0  0  0  0  0  0  0
   20.2640   12.9940   11.4480 N   0  0  0  0  0  0  0  0  0  0  0  0
  2  1  1  0
  2  7  2  0
  7  6  1  0
  6  5  2  0
  5  4  1  0
  4  3  2  0
  3  2  1  0
M  END
>  <id>  (196) 
5984

>  <inchikey>  (196) 
LJXQPZWIHJMPQQ-UHFFFAOYSA-N

>  <alias>  (196) 
c1132f

>  <smiles>  (196) 
Nc1ncccn1

>  <path>  (196) 
/opt/xchem-fragalysis-2/maxwin/CHIKV_Mac_20240920/aligned_files/c1132f/c1132f_hippo.pdb

>  <compound>  (196) 
LJXQPZWIHJMPQQ-UHFFFAOYSA-N

>  <target>  (196) 
CHIKV_Mac

>  <tags>  (196) 
['hits', '[Other] Arg144 pocket', '[Other] fragment screen']

>  <reference>  (196) 
None

>  <exports>  (196) 
['/opt/xchem-fragalysis-2/maxwin/CHIKV_HIPPO/web_resources/hit_poses.sdf', '/opt/xchem-fragalysis-2/maxwin/CHIKV_HIPPO/web/web_resources/hit_poses.sdf', '/opt/xchem-fragalysis-2/maxwin/CHIKV_HIPPO/web2/web_resources/hit_poses.sdf']

>  <observation_longname>  (196) 
CHIKV_MacB-x1132_D_306_1_CHIKV_MacB-x2352+C+401+1

>  <ConformerSites alias>  (196) 
1a - c2352/C/401

>  <CanonSites alias>  (196) 
1 - c2352/C/401/1

>  <CrystalformSites alias>  (196) 
F1a - c0270/A/304

>  <Quatassemblies alias>  (196) 
A1 - monomer

>  <Crystalforms alias>  (196) 
F1 - P31-4fold-NCS

$$$$
c1132g
     RDKit          3D

  7  7  0  0  0  0  0  0  0  0999 V2000
   16.3370   -3.2120   19.2700 N   0  0  0  0  0  0  0  0  0  0  0  0
   17.3400   -2.6960   18.5600 C   0  0  0  0  0  0  0  0  0  0  0  0
   17.0490   -1.6840   17.7100 N   0  0  0  0  0  0  0  0  0  0  0  0
   18.0880   -1.1240   17.0750 C   0  0  0  0  0  0  0  0  0  0  0  0
   19.3940   -1.5300   17.2540 C   0  0  0  0  0  0  0  0  0  0  0  0
   19.5840   -2.5800   18.1260 C   0  0  0  0  0  0  0  0  0  0  0  0
   18.5840   -3.1810   18.7870 N   0  0  0  0  0  0  0  0  0  0  0  0
  2  1  1  0
  2  7  2  0
  7  6  1  0
  6  5  2  0
  5  4  1  0
  4  3  2  0
  3  2  1  0
M  END
>  <id>  (197) 
5985

>  <inchikey>  (197) 
LJXQPZWIHJMPQQ-UHFFFAOYSA-N

>  <alias>  (197) 
c1132g

>  <smiles>  (197) 
Nc1ncccn1

>  <path>  (197) 
/opt/xchem-fragalysis-2/maxwin/CHIKV_Mac_20240920/aligned_files/c1132g/c1132g_hippo.pdb

>  <compound>  (197) 
LJXQPZWIHJMPQQ-UHFFFAOYSA-N

>  <target>  (197) 
CHIKV_Mac

>  <tags>  (197) 
['[Other] ignore', 'hits']

>  <reference>  (197) 
None

>  <exports>  (197) 
['/opt/xchem-fragalysis-2/maxwin/CHIKV_HIPPO/web_resources/hit_poses.sdf', '/opt/xchem-fragalysis-2/maxwin/CHIKV_HIPPO/web/web_resources/hit_poses.sdf', '/opt/xchem-fragalysis-2/maxwin/CHIKV_HIPPO/web2/web_resources/hit_poses.sdf']

>  <observation_longname>  (197) 
nan

>  <ConformerSites alias>  (197) 
nan

>  <CanonSites alias>  (197) 
nan

>  <CrystalformSites alias>  (197) 
nan

>  <Quatassemblies alias>  (197) 
nan

>  <Crystalforms alias>  (197) 
nan

$$$$
c1132c
     RDKit          3D

  7  7  0  0  0  0  0  0  0  0999 V2000
   -3.0410   21.2460   13.6460 N   0  0  0  0  0  0  0  0  0  0  0  0
   -2.8300   20.4650   14.7080 C   0  0  0  0  0  0  0  0  0  0  0  0
   -1.8160   20.8000   15.5410 N   0  0  0  0  0  0  0  0  0  0  0  0
   -1.6070   19.9770   16.5780 C   0  0  0  0  0  0  0  0  0  0  0  0
   -2.3550   18.8450   16.8130 C   0  0  0  0  0  0  0  0  0  0  0  0
   -3.3740   18.6030   15.9190 C   0  0  0  0  0  0  0  0  0  0  0  0
   -3.6330   19.3870   14.8620 N   0  0  0  0  0  0  0  0  0  0  0  0
  2  1  1  0
  2  7  2  0
  7  6  1  0
  6  5  2  0
  5  4  1  0
  4  3  2  0
  3  2  1  0
M  END
>  <id>  (198) 
5986

>  <inchikey>  (198) 
LJXQPZWIHJMPQQ-UHFFFAOYSA-N

>  <alias>  (198) 
c1132c

>  <smiles>  (198) 
Nc1ncccn1

>  <path>  (198) 
/opt/xchem-fragalysis-2/maxwin/CHIKV_Mac_20240920/aligned_files/c1132c/c1132c_hippo.pdb

>  <compound>  (198) 
LJXQPZWIHJMPQQ-UHFFFAOYSA-N

>  <target>  (198) 
CHIKV_Mac

>  <tags>  (198) 
['[Other] ignore', 'hits']

>  <reference>  (198) 
None

>  <exports>  (198) 
['/opt/xchem-fragalysis-2/maxwin/CHIKV_HIPPO/web_resources/hit_poses.sdf', '/opt/xchem-fragalysis-2/maxwin/CHIKV_HIPPO/web/web_resources/hit_poses.sdf', '/opt/xchem-fragalysis-2/maxwin/CHIKV_HIPPO/web2/web_resources/hit_poses.sdf']

>  <observation_longname>  (198) 
nan

>  <ConformerSites alias>  (198) 
nan

>  <CanonSites alias>  (198) 
nan

>  <CrystalformSites alias>  (198) 
nan

>  <Quatassemblies alias>  (198) 
nan

>  <Crystalforms alias>  (198) 
nan

$$$$
c1132d
     RDKit          3D

  7  7  0  0  0  0  0  0  0  0999 V2000
   14.4120   12.8390   11.5040 N   0  0  0  0  0  0  0  0  0  0  0  0
   14.6140   11.5620   11.1770 C   0  0  0  0  0  0  0  0  0  0  0  0
   14.8010   10.6770   12.1870 N   0  0  0  0  0  0  0  0  0  0  0  0
   14.9490    9.3930   11.8310 C   0  0  0  0  0  0  0  0  0  0  0  0
   14.9270    8.9600   10.5210 C   0  0  0  0  0  0  0  0  0  0  0  0
   14.7440    9.9410    9.5660 C   0  0  0  0  0  0  0  0  0  0  0  0
   14.5870   11.2410    9.8610 N   0  0  0  0  0  0  0  0  0  0  0  0
  2  1  1  0
  2  7  2  0
  7  6  1  0
  6  5  2  0
  5  4  1  0
  4  3  2  0
  3  2  1  0
M  END
>  <id>  (199) 
5987

>  <inchikey>  (199) 
LJXQPZWIHJMPQQ-UHFFFAOYSA-N

>  <alias>  (199) 
c1132d

>  <smiles>  (199) 
Nc1ncccn1

>  <path>  (199) 
/opt/xchem-fragalysis-2/maxwin/CHIKV_Mac_20240920/aligned_files/c1132d/c1132d_hippo.pdb

>  <compound>  (199) 
LJXQPZWIHJMPQQ-UHFFFAOYSA-N

>  <target>  (199) 
CHIKV_Mac

>  <tags>  (199) 
['[Other] Adenine site', 'hits', '[Other] fragment screen']

>  <reference>  (199) 
None

>  <exports>  (199) 
['/opt/xchem-fragalysis-2/maxwin/CHIKV_HIPPO/web_resources/hit_poses.sdf', '/opt/xchem-fragalysis-2/maxwin/CHIKV_HIPPO/web/web_resources/hit_poses.sdf', '/opt/xchem-fragalysis-2/maxwin/CHIKV_HIPPO/web2/web_resources/hit_poses.sdf']

>  <observation_longname>  (199) 
CHIKV_MacB-x1132_C_308_1_CHIKV_MacB-x2352+C+401+1

>  <ConformerSites alias>  (199) 
1a - c2352/C/401

>  <CanonSites alias>  (199) 
1 - c2352/C/401/1

>  <CrystalformSites alias>  (199) 
F1a - c0270/A/304

>  <Quatassemblies alias>  (199) 
A1 - monomer

>  <Crystalforms alias>  (199) 
F1 - P31-4fold-NCS

$$$$
c1134b
     RDKit          3D

  7  6  0  0  0  0  0  0  0  0999 V2000
   -5.4190   -3.4290   15.5540 O   0  0  0  0  0  0  0  0  0  0  0  0
   -5.6530   -4.8430   15.5710 N   0  0  0  0  0  0  0  0  0  0  0  0
   -6.0880   -5.1990   16.7320 C   0  0  0  0  0  0  0  0  0  0  0  0
   -6.3110   -4.3090   17.8330 N   0  0  0  0  0  0  0  0  0  0  0  0
   -6.3830   -6.6640   16.9090 C   0  0  0  0  0  0  0  0  0  0  0  0
   -5.6990   -7.2300   18.1400 C   0  0  0  0  0  0  0  0  0  0  0  0
   -7.8900   -6.9270   16.9190 C   0  0  0  0  0  0  0  0  0  0  0  0
  7  5  1  0
  6  5  1  0
  5  3  1  0
  3  2  2  0
  2  1  1  0
  4  3  1  0
M  END
>  <id>  (200) 
5988

>  <inchikey>  (200) 
JHRDEHLFNLLCQS-UHFFFAOYSA-N

>  <alias>  (200) 
c1134b

>  <smiles>  (200) 
CC(C)/C(N)=N/O

>  <path>  (200) 
/opt/xchem-fragalysis-2/maxwin/CHIKV_Mac_20240920/aligned_files/c1134b/c1134b_hippo.pdb

>  <compound>  (200) 
JHRDEHLFNLLCQS-UHFFFAOYSA-N

>  <target>  (200) 
CHIKV_Mac

>  <tags>  (200) 
['[Other] ignore', 'hits']

>  <reference>  (200) 
None

>  <exports>  (200) 
['/opt/xchem-fragalysis-2/maxwin/CHIKV_HIPPO/web_resources/hit_poses.sdf', '/opt/xchem-fragalysis-2/maxwin/CHIKV_HIPPO/web/web_resources/hit_poses.sdf', '/opt/xchem-fragalysis-2/maxwin/CHIKV_HIPPO/web2/web_resources/hit_poses.sdf']

>  <observation_longname>  (200) 
nan

>  <ConformerSites alias>  (200) 
nan

>  <CanonSites alias>  (200) 
nan

>  <CrystalformSites alias>  (200) 
nan

>  <Quatassemblies alias>  (200) 
nan

>  <Crystalforms alias>  (200) 
nan

$$$$
c1134e
     RDKit          3D

  7  6  0  0  0  0  0  0  0  0999 V2000
    3.7960   25.1010   -0.6480 O   0  0  0  0  0  0  0  0  0  0  0  0
    4.4460   25.3020    0.5590 N   0  0  0  0  0  0  0  0  0  0  0  0
    5.4010   24.4450    0.6870 C   0  0  0  0  0  0  0  0  0  0  0  0
    5.7530   23.5030   -0.2670 N   0  0  0  0  0  0  0  0  0  0  0  0
    6.1900   24.4860    1.9660 C   0  0  0  0  0  0  0  0  0  0  0  0
    7.5640   25.1080    1.7640 C   0  0  0  0  0  0  0  0  0  0  0  0
    6.2540   23.0940    2.5950 C   0  0  0  0  0  0  0  0  0  0  0  0
  7  5  1  0
  6  5  1  0
  5  3  1  0
  3  2  2  0
  2  1  1  0
  4  3  1  0
M  END
>  <id>  (201) 
5989

>  <inchikey>  (201) 
JHRDEHLFNLLCQS-UHFFFAOYSA-N

>  <alias>  (201) 
c1134e

>  <smiles>  (201) 
CC(C)/C(N)=N/O

>  <path>  (201) 
/opt/xchem-fragalysis-2/maxwin/CHIKV_Mac_20240920/aligned_files/c1134e/c1134e_hippo.pdb

>  <compound>  (201) 
JHRDEHLFNLLCQS-UHFFFAOYSA-N

>  <target>  (201) 
CHIKV_Mac

>  <tags>  (201) 
['[Other] ignore', 'hits']

>  <reference>  (201) 
None

>  <exports>  (201) 
['/opt/xchem-fragalysis-2/maxwin/CHIKV_HIPPO/web_resources/hit_poses.sdf', '/opt/xchem-fragalysis-2/maxwin/CHIKV_HIPPO/web/web_resources/hit_poses.sdf', '/opt/xchem-fragalysis-2/maxwin/CHIKV_HIPPO/web2/web_resources/hit_poses.sdf']

>  <observation_longname>  (201) 
nan

>  <ConformerSites alias>  (201) 
nan

>  <CanonSites alias>  (201) 
nan

>  <CrystalformSites alias>  (201) 
nan

>  <Quatassemblies alias>  (201) 
nan

>  <Crystalforms alias>  (201) 
nan

$$$$
c1134f
     RDKit          3D

  7  6  0  0  0  0  0  0  0  0999 V2000
   -5.5470   -2.5140    9.7340 O   0  0  0  0  0  0  0  0  0  0  0  0
   -6.8640   -2.1280    9.6930 N   0  0  0  0  0  0  0  0  0  0  0  0
   -7.2430   -1.7250   10.8580 C   0  0  0  0  0  0  0  0  0  0  0  0
   -6.4310   -1.6100   12.0100 N   0  0  0  0  0  0  0  0  0  0  0  0
   -8.6790   -1.3180   10.9240 C   0  0  0  0  0  0  0  0  0  0  0  0
   -8.7900    0.1910   10.9300 C   0  0  0  0  0  0  0  0  0  0  0  0
   -9.3760   -2.0070   12.0990 C   0  0  0  0  0  0  0  0  0  0  0  0
  7  5  1  0
  6  5  1  0
  5  3  1  0
  3  2  2  0
  2  1  1  0
  4  3  1  0
M  END
>  <id>  (202) 
5990

>  <inchikey>  (202) 
JHRDEHLFNLLCQS-UHFFFAOYSA-N

>  <alias>  (202) 
c1134f

>  <smiles>  (202) 
CC(C)/C(N)=N/O

>  <path>  (202) 
/opt/xchem-fragalysis-2/maxwin/CHIKV_Mac_20240920/aligned_files/c1134f/c1134f_hippo.pdb

>  <compound>  (202) 
JHRDEHLFNLLCQS-UHFFFAOYSA-N

>  <target>  (202) 
CHIKV_Mac

>  <tags>  (202) 
['[Other] ignore', 'hits']

>  <reference>  (202) 
None

>  <exports>  (202) 
['/opt/xchem-fragalysis-2/maxwin/CHIKV_HIPPO/web_resources/hit_poses.sdf', '/opt/xchem-fragalysis-2/maxwin/CHIKV_HIPPO/web/web_resources/hit_poses.sdf', '/opt/xchem-fragalysis-2/maxwin/CHIKV_HIPPO/web2/web_resources/hit_poses.sdf']

>  <observation_longname>  (202) 
CHIKV_MacB-x1134_B_309_1_CHIKV_MacB-x1134+B+309+1

>  <ConformerSites alias>  (202) 
11a - c1134/B/309

>  <CanonSites alias>  (202) 
11 - c1134/B/309/1

>  <CrystalformSites alias>  (202) 
F1k - c1134/B/309

>  <Quatassemblies alias>  (202) 
A1 - monomer

>  <Crystalforms alias>  (202) 
F1 - P31-4fold-NCS

$$$$
c1134a
     RDKit          3D

  7  6  0  0  0  0  0  0  0  0999 V2000
   13.8350   12.9600   11.5730 O   0  0  0  0  0  0  0  0  0  0  0  0
   14.1220   12.1980   10.4280 N   0  0  0  0  0  0  0  0  0  0  0  0
   14.3790   10.9820   10.7650 C   0  0  0  0  0  0  0  0  0  0  0  0
   14.3910   10.5140   12.0740 N   0  0  0  0  0  0  0  0  0  0  0  0
   14.7110   10.0220    9.6510 C   0  0  0  0  0  0  0  0  0  0  0  0
   13.6390    8.9730    9.3820 C   0  0  0  0  0  0  0  0  0  0  0  0
   15.9740    9.2810    9.9280 C   0  0  0  0  0  0  0  0  0  0  0  0
  7  5  1  0
  6  5  1  0
  5  3  1  0
  3  2  2  0
  2  1  1  0
  4  3  1  0
M  END
>  <id>  (203) 
5991

>  <inchikey>  (203) 
JHRDEHLFNLLCQS-UHFFFAOYSA-N

>  <alias>  (203) 
c1134a

>  <smiles>  (203) 
CC(C)/C(N)=N/O

>  <path>  (203) 
/opt/xchem-fragalysis-2/maxwin/CHIKV_Mac_20240920/aligned_files/c1134a/c1134a_hippo.pdb

>  <compound>  (203) 
JHRDEHLFNLLCQS-UHFFFAOYSA-N

>  <target>  (203) 
CHIKV_Mac

>  <tags>  (203) 
['[Other] Adenine site', 'hits', '[Other] fragment screen']

>  <reference>  (203) 
None

>  <exports>  (203) 
['/opt/xchem-fragalysis-2/maxwin/CHIKV_HIPPO/web_resources/hit_poses.sdf', '/opt/xchem-fragalysis-2/maxwin/CHIKV_HIPPO/web/web_resources/hit_poses.sdf', '/opt/xchem-fragalysis-2/maxwin/CHIKV_HIPPO/web2/web_resources/hit_poses.sdf']

>  <observation_longname>  (203) 
nan

>  <ConformerSites alias>  (203) 
nan

>  <CanonSites alias>  (203) 
nan

>  <CrystalformSites alias>  (203) 
nan

>  <Quatassemblies alias>  (203) 
nan

>  <Crystalforms alias>  (203) 
nan

$$$$
c1134c
     RDKit          3D

  7  6  0  0  0  0  0  0  0  0999 V2000
   13.8180   12.9660   11.4050 O   0  0  0  0  0  0  0  0  0  0  0  0
   14.0420   12.1500   10.2840 N   0  0  0  0  0  0  0  0  0  0  0  0
   14.4360   10.9840   10.6610 C   0  0  0  0  0  0  0  0  0  0  0  0
   14.6100   10.5920   11.9830 N   0  0  0  0  0  0  0  0  0  0  0  0
   14.7120    9.9840    9.5740 C   0  0  0  0  0  0  0  0  0  0  0  0
   13.6430    8.9050    9.5540 C   0  0  0  0  0  0  0  0  0  0  0  0
   16.1070    9.3970    9.6820 C   0  0  0  0  0  0  0  0  0  0  0  0
  7  5  1  0
  6  5  1  0
  5  3  1  0
  3  2  2  0
  2  1  1  0
  4  3  1  0
M  END
>  <id>  (204) 
5992

>  <inchikey>  (204) 
JHRDEHLFNLLCQS-UHFFFAOYSA-N

>  <alias>  (204) 
c1134c

>  <smiles>  (204) 
CC(C)/C(N)=N/O

>  <path>  (204) 
/opt/xchem-fragalysis-2/maxwin/CHIKV_Mac_20240920/aligned_files/c1134c/c1134c_hippo.pdb

>  <compound>  (204) 
JHRDEHLFNLLCQS-UHFFFAOYSA-N

>  <target>  (204) 
CHIKV_Mac

>  <tags>  (204) 
['[Other] Adenine site', 'hits', '[Other] fragment screen']

>  <reference>  (204) 
None

>  <exports>  (204) 
['/opt/xchem-fragalysis-2/maxwin/CHIKV_HIPPO/web_resources/hit_poses.sdf', '/opt/xchem-fragalysis-2/maxwin/CHIKV_HIPPO/web/web_resources/hit_poses.sdf', '/opt/xchem-fragalysis-2/maxwin/CHIKV_HIPPO/web2/web_resources/hit_poses.sdf']

>  <observation_longname>  (204) 
nan

>  <ConformerSites alias>  (204) 
nan

>  <CanonSites alias>  (204) 
nan

>  <CrystalformSites alias>  (204) 
nan

>  <Quatassemblies alias>  (204) 
nan

>  <Crystalforms alias>  (204) 
nan

$$$$
c1134d
     RDKit          3D

  7  6  0  0  0  0  0  0  0  0999 V2000
   14.1460   12.7620   11.1910 O   0  0  0  0  0  0  0  0  0  0  0  0
   14.4460   11.6610   10.3840 N   0  0  0  0  0  0  0  0  0  0  0  0
   14.7070   10.6400   11.1230 C   0  0  0  0  0  0  0  0  0  0  0  0
   14.6950   10.6450   12.5170 N   0  0  0  0  0  0  0  0  0  0  0  0
   15.0550    9.3570   10.4200 C   0  0  0  0  0  0  0  0  0  0  0  0
   16.3220    9.5150    9.6260 C   0  0  0  0  0  0  0  0  0  0  0  0
   13.9320    8.8480    9.5130 C   0  0  0  0  0  0  0  0  0  0  0  0
  7  5  1  0
  6  5  1  0
  5  3  1  0
  3  2  2  0
  2  1  1  0
  4  3  1  0
M  END
>  <id>  (205) 
5993

>  <inchikey>  (205) 
JHRDEHLFNLLCQS-UHFFFAOYSA-N

>  <alias>  (205) 
c1134d

>  <smiles>  (205) 
CC(C)/C(N)=N/O

>  <path>  (205) 
/opt/xchem-fragalysis-2/maxwin/CHIKV_Mac_20240920/aligned_files/c1134d/c1134d_hippo.pdb

>  <compound>  (205) 
JHRDEHLFNLLCQS-UHFFFAOYSA-N

>  <target>  (205) 
CHIKV_Mac

>  <tags>  (205) 
['[Other] Adenine site', 'hits', '[Other] fragment screen']

>  <reference>  (205) 
None

>  <exports>  (205) 
['/opt/xchem-fragalysis-2/maxwin/CHIKV_HIPPO/web_resources/hit_poses.sdf', '/opt/xchem-fragalysis-2/maxwin/CHIKV_HIPPO/web/web_resources/hit_poses.sdf', '/opt/xchem-fragalysis-2/maxwin/CHIKV_HIPPO/web2/web_resources/hit_poses.sdf']

>  <observation_longname>  (205) 
CHIKV_MacB-x1134_D_401_1_CHIKV_MacB-x2352+C+401+1

>  <ConformerSites alias>  (205) 
1a - c2352/C/401

>  <CanonSites alias>  (205) 
1 - c2352/C/401/1

>  <CrystalformSites alias>  (205) 
F1a - c0270/A/304

>  <Quatassemblies alias>  (205) 
A1 - monomer

>  <Crystalforms alias>  (205) 
F1 - P31-4fold-NCS

$$$$
c1135a
     RDKit          3D

  7  7  0  0  0  0  0  0  0  0999 V2000
   18.6740    4.3440   11.4750 O   0  0  0  0  0  0  0  0  0  0  0  0
   17.7790    3.8210   12.1640 C   0  0  0  0  0  0  0  0  0  0  0  0
   18.0350    3.4430   13.4470 N   0  0  0  0  0  0  0  0  0  0  0  0
   17.1600    2.8540   14.3180 N   0  0  0  0  0  0  0  0  0  0  0  0
   15.9590    2.6470   13.8870 C   0  0  0  0  0  0  0  0  0  0  0  0
   15.5360    3.0050   12.5970 C   0  0  0  0  0  0  0  0  0  0  0  0
   16.4380    3.5750   11.7400 C   0  0  0  0  0  0  0  0  0  0  0  0
  2  1  2  0
  2  7  1  0
  7  6  2  0
  6  5  1  0
  5  4  2  0
  4  3  1  0
  3  2  1  0
M  END
>  <id>  (206) 
5994

>  <inchikey>  (206) 
AAILEWXSEQLMNI-UHFFFAOYSA-N

>  <alias>  (206) 
c1135a

>  <smiles>  (206) 
O=c1cccn[nH]1

>  <path>  (206) 
/opt/xchem-fragalysis-2/maxwin/CHIKV_Mac_20240920/aligned_files/c1135a/c1135a_hippo.pdb

>  <compound>  (206) 
AAILEWXSEQLMNI-UHFFFAOYSA-N

>  <target>  (206) 
CHIKV_Mac

>  <tags>  (206) 
['[Other] Oxyanion site', 'hits', '[Other] Trp148 site', '[Other] fragment screen']

>  <reference>  (206) 
None

>  <exports>  (206) 
['/opt/xchem-fragalysis-2/maxwin/CHIKV_HIPPO/web_resources/hit_poses.sdf', '/opt/xchem-fragalysis-2/maxwin/CHIKV_HIPPO/web/web_resources/hit_poses.sdf', '/opt/xchem-fragalysis-2/maxwin/CHIKV_HIPPO/web2/web_resources/hit_poses.sdf']

>  <observation_longname>  (206) 
nan

>  <ConformerSites alias>  (206) 
nan

>  <CanonSites alias>  (206) 
nan

>  <CrystalformSites alias>  (206) 
nan

>  <Quatassemblies alias>  (206) 
nan

>  <Crystalforms alias>  (206) 
nan

$$$$
c1135b
     RDKit          3D

  7  7  0  0  0  0  0  0  0  0999 V2000
    5.0220    9.7910   17.7470 O   0  0  0  0  0  0  0  0  0  0  0  0
    5.4730    8.8360   17.1000 C   0  0  0  0  0  0  0  0  0  0  0  0
    6.7730    8.8400   16.6900 N   0  0  0  0  0  0  0  0  0  0  0  0
    7.3750    7.9190   15.8890 N   0  0  0  0  0  0  0  0  0  0  0  0
    6.6530    6.9150   15.5170 C   0  0  0  0  0  0  0  0  0  0  0  0
    5.3070    6.7410   15.8770 C   0  0  0  0  0  0  0  0  0  0  0  0
    4.7190    7.6980   16.6510 C   0  0  0  0  0  0  0  0  0  0  0  0
  2  1  2  0
  2  7  1  0
  7  6  2  0
  6  5  1  0
  5  4  2  0
  4  3  1  0
  3  2  1  0
M  END
>  <id>  (207) 
5995

>  <inchikey>  (207) 
AAILEWXSEQLMNI-UHFFFAOYSA-N

>  <alias>  (207) 
c1135b

>  <smiles>  (207) 
O=c1cccn[nH]1

>  <path>  (207) 
/opt/xchem-fragalysis-2/maxwin/CHIKV_Mac_20240920/aligned_files/c1135b/c1135b_hippo.pdb

>  <compound>  (207) 
AAILEWXSEQLMNI-UHFFFAOYSA-N

>  <target>  (207) 
CHIKV_Mac

>  <tags>  (207) 
['hits', '[Other] Ribose site', '[Other] fragment screen']

>  <reference>  (207) 
None

>  <exports>  (207) 
['/opt/xchem-fragalysis-2/maxwin/CHIKV_HIPPO/web_resources/hit_poses.sdf', '/opt/xchem-fragalysis-2/maxwin/CHIKV_HIPPO/web/web_resources/hit_poses.sdf', '/opt/xchem-fragalysis-2/maxwin/CHIKV_HIPPO/web2/web_resources/hit_poses.sdf']

>  <observation_longname>  (207) 
CHIKV_MacB-x1135_A_305_1_CHIKV_MacB-x2352+C+401+1

>  <ConformerSites alias>  (207) 
1a - c2352/C/401

>  <CanonSites alias>  (207) 
1 - c2352/C/401/1

>  <CrystalformSites alias>  (207) 
F1a - c0270/A/304

>  <Quatassemblies alias>  (207) 
A1 - monomer

>  <Crystalforms alias>  (207) 
F1 - P31-4fold-NCS

$$$$
c1135c
     RDKit          3D

  7  7  0  0  0  0  0  0  0  0999 V2000
   18.6850    4.3640   11.5460 O   0  0  0  0  0  0  0  0  0  0  0  0
   17.8100    3.8310   12.2420 C   0  0  0  0  0  0  0  0  0  0  0  0
   18.0980    3.4180   13.5070 N   0  0  0  0  0  0  0  0  0  0  0  0
   17.2300    2.8600   14.4020 N   0  0  0  0  0  0  0  0  0  0  0  0
   16.0110    2.7030   14.0040 C   0  0  0  0  0  0  0  0  0  0  0  0
   15.5580    3.0710   12.7250 C   0  0  0  0  0  0  0  0  0  0  0  0
   16.4450    3.6290   11.8540 C   0  0  0  0  0  0  0  0  0  0  0  0
  2  1  2  0
  2  7  1  0
  7  6  2  0
  6  5  1  0
  5  4  2  0
  4  3  1  0
  3  2  1  0
M  END
>  <id>  (208) 
5996

>  <inchikey>  (208) 
AAILEWXSEQLMNI-UHFFFAOYSA-N

>  <alias>  (208) 
c1135c

>  <smiles>  (208) 
O=c1cccn[nH]1

>  <path>  (208) 
/opt/xchem-fragalysis-2/maxwin/CHIKV_Mac_20240920/aligned_files/c1135c/c1135c_hippo.pdb

>  <compound>  (208) 
AAILEWXSEQLMNI-UHFFFAOYSA-N

>  <target>  (208) 
CHIKV_Mac

>  <tags>  (208) 
['[Other] Oxyanion site', 'hits', '[Other] Trp148 site', '[Other] fragment screen']

>  <reference>  (208) 
None

>  <exports>  (208) 
['/opt/xchem-fragalysis-2/maxwin/CHIKV_HIPPO/web_resources/hit_poses.sdf', '/opt/xchem-fragalysis-2/maxwin/CHIKV_HIPPO/web/web_resources/hit_poses.sdf', '/opt/xchem-fragalysis-2/maxwin/CHIKV_HIPPO/web2/web_resources/hit_poses.sdf']

>  <observation_longname>  (208) 
nan

>  <ConformerSites alias>  (208) 
nan

>  <CanonSites alias>  (208) 
nan

>  <CrystalformSites alias>  (208) 
nan

>  <Quatassemblies alias>  (208) 
nan

>  <Crystalforms alias>  (208) 
nan

$$$$
c1135d
     RDKit          3D

  7  7  0  0  0  0  0  0  0  0999 V2000
    4.7550    9.6110   17.8000 O   0  0  0  0  0  0  0  0  0  0  0  0
    5.2510    8.7390   17.0680 C   0  0  0  0  0  0  0  0  0  0  0  0
    6.5550    8.8260   16.6830 N   0  0  0  0  0  0  0  0  0  0  0  0
    7.2460    7.9220   15.9270 N   0  0  0  0  0  0  0  0  0  0  0  0
    6.5960    6.8730   15.5390 C   0  0  0  0  0  0  0  0  0  0  0  0
    5.2450    6.6410   15.8470 C   0  0  0  0  0  0  0  0  0  0  0  0
    4.5770    7.5670   16.5930 C   0  0  0  0  0  0  0  0  0  0  0  0
  2  1  2  0
  2  7  1  0
  7  6  2  0
  6  5  1  0
  5  4  2  0
  4  3  1  0
  3  2  1  0
M  END
>  <id>  (209) 
5997

>  <inchikey>  (209) 
AAILEWXSEQLMNI-UHFFFAOYSA-N

>  <alias>  (209) 
c1135d

>  <smiles>  (209) 
O=c1cccn[nH]1

>  <path>  (209) 
/opt/xchem-fragalysis-2/maxwin/CHIKV_Mac_20240920/aligned_files/c1135d/c1135d_hippo.pdb

>  <compound>  (209) 
AAILEWXSEQLMNI-UHFFFAOYSA-N

>  <target>  (209) 
CHIKV_Mac

>  <tags>  (209) 
['[Other] New', 'hits', '[Other] Ribose site', '[Other] fragment screen']

>  <reference>  (209) 
None

>  <exports>  (209) 
['/opt/xchem-fragalysis-2/maxwin/CHIKV_HIPPO/web_resources/hit_poses.sdf', '/opt/xchem-fragalysis-2/maxwin/CHIKV_HIPPO/web/web_resources/hit_poses.sdf', '/opt/xchem-fragalysis-2/maxwin/CHIKV_HIPPO/web2/web_resources/hit_poses.sdf']

>  <observation_longname>  (209) 
nan

>  <ConformerSites alias>  (209) 
nan

>  <CanonSites alias>  (209) 
nan

>  <CrystalformSites alias>  (209) 
nan

>  <Quatassemblies alias>  (209) 
nan

>  <Crystalforms alias>  (209) 
nan

$$$$
c1135g
     RDKit          3D

  7  7  0  0  0  0  0  0  0  0999 V2000
   18.7780    4.3180   11.3160 O   0  0  0  0  0  0  0  0  0  0  0  0
   17.8400    3.8740   12.0060 C   0  0  0  0  0  0  0  0  0  0  0  0
   18.0680    3.4480   13.2800 N   0  0  0  0  0  0  0  0  0  0  0  0
   17.1380    2.9700   14.1640 N   0  0  0  0  0  0  0  0  0  0  0  0
   15.9170    2.9120   13.7420 C   0  0  0  0  0  0  0  0  0  0  0  0
   15.5250    3.2950   12.4500 C   0  0  0  0  0  0  0  0  0  0  0  0
   16.4680    3.7700   11.5900 C   0  0  0  0  0  0  0  0  0  0  0  0
  2  1  2  0
  2  7  1  0
  7  6  2  0
  6  5  1  0
  5  4  2  0
  4  3  1  0
  3  2  1  0
M  END
>  <id>  (210) 
5998

>  <inchikey>  (210) 
AAILEWXSEQLMNI-UHFFFAOYSA-N

>  <alias>  (210) 
c1135g

>  <smiles>  (210) 
O=c1cccn[nH]1

>  <path>  (210) 
/opt/xchem-fragalysis-2/maxwin/CHIKV_Mac_20240920/aligned_files/c1135g/c1135g_hippo.pdb

>  <compound>  (210) 
AAILEWXSEQLMNI-UHFFFAOYSA-N

>  <target>  (210) 
CHIKV_Mac

>  <tags>  (210) 
['[Other] Oxyanion site', 'hits', '[Other] Trp148 site', '[Other] fragment screen']

>  <reference>  (210) 
None

>  <exports>  (210) 
['/opt/xchem-fragalysis-2/maxwin/CHIKV_HIPPO/web_resources/hit_poses.sdf', '/opt/xchem-fragalysis-2/maxwin/CHIKV_HIPPO/web/web_resources/hit_poses.sdf', '/opt/xchem-fragalysis-2/maxwin/CHIKV_HIPPO/web2/web_resources/hit_poses.sdf']

>  <observation_longname>  (210) 
nan

>  <ConformerSites alias>  (210) 
nan

>  <CanonSites alias>  (210) 
nan

>  <CrystalformSites alias>  (210) 
nan

>  <Quatassemblies alias>  (210) 
nan

>  <Crystalforms alias>  (210) 
nan

$$$$
c1135h
     RDKit          3D

  7  7  0  0  0  0  0  0  0  0999 V2000
    4.8120    9.6630   17.7580 O   0  0  0  0  0  0  0  0  0  0  0  0
    5.3300    8.7920   17.0390 C   0  0  0  0  0  0  0  0  0  0  0  0
    6.6390    8.8910   16.6840 N   0  0  0  0  0  0  0  0  0  0  0  0
    7.3470    8.0070   15.9180 N   0  0  0  0  0  0  0  0  0  0  0  0
    6.7040    6.9720   15.4850 C   0  0  0  0  0  0  0  0  0  0  0  0
    5.3460    6.7230   15.7620 C   0  0  0  0  0  0  0  0  0  0  0  0
    4.6680    7.6270   16.5290 C   0  0  0  0  0  0  0  0  0  0  0  0
  2  1  2  0
  2  7  1  0
  7  6  2  0
  6  5  1  0
  5  4  2  0
  4  3  1  0
  3  2  1  0
M  END
>  <id>  (211) 
5999

>  <inchikey>  (211) 
AAILEWXSEQLMNI-UHFFFAOYSA-N

>  <alias>  (211) 
c1135h

>  <smiles>  (211) 
O=c1cccn[nH]1

>  <path>  (211) 
/opt/xchem-fragalysis-2/maxwin/CHIKV_Mac_20240920/aligned_files/c1135h/c1135h_hippo.pdb

>  <compound>  (211) 
AAILEWXSEQLMNI-UHFFFAOYSA-N

>  <target>  (211) 
CHIKV_Mac

>  <tags>  (211) 
['[Other] New', 'hits', '[Other] Ribose site', '[Other] fragment screen']

>  <reference>  (211) 
None

>  <exports>  (211) 
['/opt/xchem-fragalysis-2/maxwin/CHIKV_HIPPO/web_resources/hit_poses.sdf', '/opt/xchem-fragalysis-2/maxwin/CHIKV_HIPPO/web/web_resources/hit_poses.sdf', '/opt/xchem-fragalysis-2/maxwin/CHIKV_HIPPO/web2/web_resources/hit_poses.sdf']

>  <observation_longname>  (211) 
CHIKV_MacB-x1135_C_403_1_CHIKV_MacB-x2352+C+401+1

>  <ConformerSites alias>  (211) 
1a - c2352/C/401

>  <CanonSites alias>  (211) 
1 - c2352/C/401/1

>  <CrystalformSites alias>  (211) 
F1a - c0270/A/304

>  <Quatassemblies alias>  (211) 
A1 - monomer

>  <Crystalforms alias>  (211) 
F1 - P31-4fold-NCS

$$$$
c1135i
     RDKit          3D

  7  7  0  0  0  0  0  0  0  0999 V2000
   13.6240    8.9630   16.0810 O   0  0  0  0  0  0  0  0  0  0  0  0
   14.3590    8.0230   15.7460 C   0  0  0  0  0  0  0  0  0  0  0  0
   15.0390    8.0730   14.5680 N   0  0  0  0  0  0  0  0  0  0  0  0
   15.8740    7.1150   14.0680 N   0  0  0  0  0  0  0  0  0  0  0  0
   16.0360    6.0560   14.7890 C   0  0  0  0  0  0  0  0  0  0  0  0
   15.4050    5.8410   16.0280 C   0  0  0  0  0  0  0  0  0  0  0  0
   14.5730    6.8180   16.5030 C   0  0  0  0  0  0  0  0  0  0  0  0
  2  1  2  0
  2  7  1  0
  7  6  2  0
  6  5  1  0
  5  4  2  0
  4  3  1  0
  3  2  1  0
M  END
>  <id>  (212) 
6000

>  <inchikey>  (212) 
AAILEWXSEQLMNI-UHFFFAOYSA-N

>  <alias>  (212) 
c1135i

>  <smiles>  (212) 
O=c1cccn[nH]1

>  <path>  (212) 
/opt/xchem-fragalysis-2/maxwin/CHIKV_Mac_20240920/aligned_files/c1135i/c1135i_hippo.pdb

>  <compound>  (212) 
AAILEWXSEQLMNI-UHFFFAOYSA-N

>  <target>  (212) 
CHIKV_Mac

>  <tags>  (212) 
['[Other] ignore', 'hits']

>  <reference>  (212) 
None

>  <exports>  (212) 
['/opt/xchem-fragalysis-2/maxwin/CHIKV_HIPPO/web_resources/hit_poses.sdf', '/opt/xchem-fragalysis-2/maxwin/CHIKV_HIPPO/web/web_resources/hit_poses.sdf', '/opt/xchem-fragalysis-2/maxwin/CHIKV_HIPPO/web2/web_resources/hit_poses.sdf']

>  <observation_longname>  (212) 
nan

>  <ConformerSites alias>  (212) 
nan

>  <CanonSites alias>  (212) 
nan

>  <CrystalformSites alias>  (212) 
nan

>  <Quatassemblies alias>  (212) 
nan

>  <Crystalforms alias>  (212) 
nan

$$$$
c1135k
     RDKit          3D

  7  7  0  0  0  0  0  0  0  0999 V2000
   14.5900   11.4950   10.0260 O   0  0  0  0  0  0  0  0  0  0  0  0
   14.6210   11.7110   11.2450 C   0  0  0  0  0  0  0  0  0  0  0  0
   14.6230   12.9880   11.7120 N   0  0  0  0  0  0  0  0  0  0  0  0
   14.6550   13.3790   13.0200 N   0  0  0  0  0  0  0  0  0  0  0  0
   14.6800   12.4370   13.9050 C   0  0  0  0  0  0  0  0  0  0  0  0
   14.6860   11.0670   13.5920 C   0  0  0  0  0  0  0  0  0  0  0  0
   14.6570   10.7070   12.2730 C   0  0  0  0  0  0  0  0  0  0  0  0
  2  1  2  0
  2  7  1  0
  7  6  2  0
  6  5  1  0
  5  4  2  0
  4  3  1  0
  3  2  1  0
M  END
>  <id>  (213) 
6001

>  <inchikey>  (213) 
AAILEWXSEQLMNI-UHFFFAOYSA-N

>  <alias>  (213) 
c1135k

>  <smiles>  (213) 
O=c1cccn[nH]1

>  <path>  (213) 
/opt/xchem-fragalysis-2/maxwin/CHIKV_Mac_20240920/aligned_files/c1135k/c1135k_hippo.pdb

>  <compound>  (213) 
AAILEWXSEQLMNI-UHFFFAOYSA-N

>  <target>  (213) 
CHIKV_Mac

>  <tags>  (213) 
['[Other] Adenine site', 'hits', '[Other] fragment screen']

>  <reference>  (213) 
None

>  <exports>  (213) 
['/opt/xchem-fragalysis-2/maxwin/CHIKV_HIPPO/web_resources/hit_poses.sdf', '/opt/xchem-fragalysis-2/maxwin/CHIKV_HIPPO/web/web_resources/hit_poses.sdf', '/opt/xchem-fragalysis-2/maxwin/CHIKV_HIPPO/web2/web_resources/hit_poses.sdf']

>  <observation_longname>  (213) 
nan

>  <ConformerSites alias>  (213) 
nan

>  <CanonSites alias>  (213) 
nan

>  <CrystalformSites alias>  (213) 
nan

>  <Quatassemblies alias>  (213) 
nan

>  <Crystalforms alias>  (213) 
nan

$$$$
c1135l
     RDKit          3D

  7  7  0  0  0  0  0  0  0  0999 V2000
    4.8730    9.6060   17.7700 O   0  0  0  0  0  0  0  0  0  0  0  0
    5.3600    8.7230   17.0350 C   0  0  0  0  0  0  0  0  0  0  0  0
    6.6820    8.7590   16.7080 N   0  0  0  0  0  0  0  0  0  0  0  0
    7.3570    7.8570   15.9310 N   0  0  0  0  0  0  0  0  0  0  0  0
    6.6700    6.8660   15.4610 C   0  0  0  0  0  0  0  0  0  0  0  0
    5.2970    6.6780   15.7070 C   0  0  0  0  0  0  0  0  0  0  0  0
    4.6480    7.6000   16.4820 C   0  0  0  0  0  0  0  0  0  0  0  0
  2  1  2  0
  2  7  1  0
  7  6  2  0
  6  5  1  0
  5  4  2  0
  4  3  1  0
  3  2  1  0
M  END
>  <id>  (214) 
6002

>  <inchikey>  (214) 
AAILEWXSEQLMNI-UHFFFAOYSA-N

>  <alias>  (214) 
c1135l

>  <smiles>  (214) 
O=c1cccn[nH]1

>  <path>  (214) 
/opt/xchem-fragalysis-2/maxwin/CHIKV_Mac_20240920/aligned_files/c1135l/c1135l_hippo.pdb

>  <compound>  (214) 
AAILEWXSEQLMNI-UHFFFAOYSA-N

>  <target>  (214) 
CHIKV_Mac

>  <tags>  (214) 
['[Other] New', 'hits', '[Other] Ribose site', '[Other] fragment screen']

>  <reference>  (214) 
None

>  <exports>  (214) 
['/opt/xchem-fragalysis-2/maxwin/CHIKV_HIPPO/web_resources/hit_poses.sdf', '/opt/xchem-fragalysis-2/maxwin/CHIKV_HIPPO/web/web_resources/hit_poses.sdf', '/opt/xchem-fragalysis-2/maxwin/CHIKV_HIPPO/web2/web_resources/hit_poses.sdf']

>  <observation_longname>  (214) 
nan

>  <ConformerSites alias>  (214) 
nan

>  <CanonSites alias>  (214) 
nan

>  <CrystalformSites alias>  (214) 
nan

>  <Quatassemblies alias>  (214) 
nan

>  <Crystalforms alias>  (214) 
nan

$$$$
c1135f
     RDKit          3D

  7  7  0  0  0  0  0  0  0  0999 V2000
    5.8810   24.3410    6.4200 O   0  0  0  0  0  0  0  0  0  0  0  0
    6.4310   24.4420    5.3140 C   0  0  0  0  0  0  0  0  0  0  0  0
    7.6490   23.8730    5.0990 N   0  0  0  0  0  0  0  0  0  0  0  0
    8.3770   23.9220    3.9470 N   0  0  0  0  0  0  0  0  0  0  0  0
    7.8500   24.5670    2.9580 C   0  0  0  0  0  0  0  0  0  0  0  0
    6.6030   25.2070    3.0150 C   0  0  0  0  0  0  0  0  0  0  0  0
    5.9000   25.1490    4.1800 C   0  0  0  0  0  0  0  0  0  0  0  0
  2  1  2  0
  2  7  1  0
  7  6  2  0
  6  5  1  0
  5  4  2  0
  4  3  1  0
  3  2  1  0
M  END
>  <id>  (215) 
6003

>  <inchikey>  (215) 
AAILEWXSEQLMNI-UHFFFAOYSA-N

>  <alias>  (215) 
c1135f

>  <smiles>  (215) 
O=c1cccn[nH]1

>  <path>  (215) 
/opt/xchem-fragalysis-2/maxwin/CHIKV_Mac_20240920/aligned_files/c1135f/c1135f_hippo.pdb

>  <compound>  (215) 
AAILEWXSEQLMNI-UHFFFAOYSA-N

>  <target>  (215) 
CHIKV_Mac

>  <tags>  (215) 
['[Other] ignore', 'hits']

>  <reference>  (215) 
None

>  <exports>  (215) 
['/opt/xchem-fragalysis-2/maxwin/CHIKV_HIPPO/web_resources/hit_poses.sdf', '/opt/xchem-fragalysis-2/maxwin/CHIKV_HIPPO/web/web_resources/hit_poses.sdf', '/opt/xchem-fragalysis-2/maxwin/CHIKV_HIPPO/web2/web_resources/hit_poses.sdf']

>  <observation_longname>  (215) 
nan

>  <ConformerSites alias>  (215) 
nan

>  <CanonSites alias>  (215) 
nan

>  <CrystalformSites alias>  (215) 
nan

>  <Quatassemblies alias>  (215) 
nan

>  <Crystalforms alias>  (215) 
nan

$$$$
c1135e
     RDKit          3D

  7  7  0  0  0  0  0  0  0  0999 V2000
   14.4080   11.2590    9.9930 O   0  0  0  0  0  0  0  0  0  0  0  0
   14.4290   11.4270   11.2240 C   0  0  0  0  0  0  0  0  0  0  0  0
   14.2430   12.6680   11.7480 N   0  0  0  0  0  0  0  0  0  0  0  0
   14.2660   13.0060   13.0720 N   0  0  0  0  0  0  0  0  0  0  0  0
   14.4830   12.0490   13.9110 C   0  0  0  0  0  0  0  0  0  0  0  0
   14.6900   10.7110   13.5320 C   0  0  0  0  0  0  0  0  0  0  0  0
   14.6620   10.4030   12.2040 C   0  0  0  0  0  0  0  0  0  0  0  0
  2  1  2  0
  2  7  1  0
  7  6  2  0
  6  5  1  0
  5  4  2  0
  4  3  1  0
  3  2  1  0
M  END
>  <id>  (216) 
6004

>  <inchikey>  (216) 
AAILEWXSEQLMNI-UHFFFAOYSA-N

>  <alias>  (216) 
c1135e

>  <smiles>  (216) 
O=c1cccn[nH]1

>  <path>  (216) 
/opt/xchem-fragalysis-2/maxwin/CHIKV_Mac_20240920/aligned_files/c1135e/c1135e_hippo.pdb

>  <compound>  (216) 
AAILEWXSEQLMNI-UHFFFAOYSA-N

>  <target>  (216) 
CHIKV_Mac

>  <tags>  (216) 
['[Other] Adenine site', 'hits', '[Other] fragment screen']

>  <reference>  (216) 
None

>  <exports>  (216) 
['/opt/xchem-fragalysis-2/maxwin/CHIKV_HIPPO/web_resources/hit_poses.sdf', '/opt/xchem-fragalysis-2/maxwin/CHIKV_HIPPO/web/web_resources/hit_poses.sdf', '/opt/xchem-fragalysis-2/maxwin/CHIKV_HIPPO/web2/web_resources/hit_poses.sdf']

>  <observation_longname>  (216) 
nan

>  <ConformerSites alias>  (216) 
nan

>  <CanonSites alias>  (216) 
nan

>  <CrystalformSites alias>  (216) 
nan

>  <Quatassemblies alias>  (216) 
nan

>  <Crystalforms alias>  (216) 
nan

$$$$
c1135j
     RDKit          3D

  7  7  0  0  0  0  0  0  0  0999 V2000
   18.6470    4.4180   11.4510 O   0  0  0  0  0  0  0  0  0  0  0  0
   17.7470    3.8870   12.1050 C   0  0  0  0  0  0  0  0  0  0  0  0
   17.9710    3.5050   13.3920 N   0  0  0  0  0  0  0  0  0  0  0  0
   17.0670    2.9530   14.2480 N   0  0  0  0  0  0  0  0  0  0  0  0
   15.8740    2.7710   13.7880 C   0  0  0  0  0  0  0  0  0  0  0  0
   15.4860    3.0970   12.4810 C   0  0  0  0  0  0  0  0  0  0  0  0
   16.4070    3.6470   11.6440 C   0  0  0  0  0  0  0  0  0  0  0  0
  2  1  2  0
  2  7  1  0
  7  6  2  0
  6  5  1  0
  5  4  2  0
  4  3  1  0
  3  2  1  0
M  END
>  <id>  (217) 
6005

>  <inchikey>  (217) 
AAILEWXSEQLMNI-UHFFFAOYSA-N

>  <alias>  (217) 
c1135j

>  <smiles>  (217) 
O=c1cccn[nH]1

>  <path>  (217) 
/opt/xchem-fragalysis-2/maxwin/CHIKV_Mac_20240920/aligned_files/c1135j/c1135j_hippo.pdb

>  <compound>  (217) 
AAILEWXSEQLMNI-UHFFFAOYSA-N

>  <target>  (217) 
CHIKV_Mac

>  <tags>  (217) 
['[Other] Oxyanion site', 'hits', '[Other] Trp148 site', '[Other] fragment screen']

>  <reference>  (217) 
None

>  <exports>  (217) 
['/opt/xchem-fragalysis-2/maxwin/CHIKV_HIPPO/web_resources/hit_poses.sdf', '/opt/xchem-fragalysis-2/maxwin/CHIKV_HIPPO/web/web_resources/hit_poses.sdf', '/opt/xchem-fragalysis-2/maxwin/CHIKV_HIPPO/web2/web_resources/hit_poses.sdf']

>  <observation_longname>  (217) 
nan

>  <ConformerSites alias>  (217) 
nan

>  <CanonSites alias>  (217) 
nan

>  <CrystalformSites alias>  (217) 
nan

>  <Quatassemblies alias>  (217) 
nan

>  <Crystalforms alias>  (217) 
nan

$$$$
c1145b
     RDKit          3D

  6  6  0  0  0  0  0  0  0  0999 V2000
   17.0520   -3.8090   20.1160 N   0  0  0  0  0  0  0  0  0  0  0  0
   16.9020   -2.8190   19.2350 C   0  0  0  0  0  0  0  0  0  0  0  0
   16.0360   -1.8390   19.3820 N   0  0  0  0  0  0  0  0  0  0  0  0
   16.2110   -1.0740   18.2790 N   0  0  0  0  0  0  0  0  0  0  0  0
   17.1520   -1.5670   17.4680 C   0  0  0  0  0  0  0  0  0  0  0  0
   17.6410   -2.7030   18.0490 C   0  0  0  0  0  0  0  0  0  0  0  0
  2  1  1  0
  2  6  1  0
  6  5  2  0
  5  4  1  0
  4  3  1  0
  3  2  2  0
M  END
>  <id>  (218) 
6006

>  <inchikey>  (218) 
JVVRJMXHNUAPHW-UHFFFAOYSA-N

>  <alias>  (218) 
c1145b

>  <smiles>  (218) 
Nc1cc[nH]n1

>  <path>  (218) 
/opt/xchem-fragalysis-2/maxwin/CHIKV_Mac_20240920/aligned_files/c1145b/c1145b_hippo.pdb

>  <compound>  (218) 
JVVRJMXHNUAPHW-UHFFFAOYSA-N

>  <target>  (218) 
CHIKV_Mac

>  <tags>  (218) 
['[Other] ignore', 'hits']

>  <reference>  (218) 
None

>  <exports>  (218) 
['/opt/xchem-fragalysis-2/maxwin/CHIKV_HIPPO/web_resources/hit_poses.sdf', '/opt/xchem-fragalysis-2/maxwin/CHIKV_HIPPO/web/web_resources/hit_poses.sdf', '/opt/xchem-fragalysis-2/maxwin/CHIKV_HIPPO/web2/web_resources/hit_poses.sdf']

>  <observation_longname>  (218) 
nan

>  <ConformerSites alias>  (218) 
nan

>  <CanonSites alias>  (218) 
nan

>  <CrystalformSites alias>  (218) 
nan

>  <Quatassemblies alias>  (218) 
nan

>  <Crystalforms alias>  (218) 
nan

$$$$
c1145c
     RDKit          3D

  6  6  0  0  0  0  0  0  0  0999 V2000
    5.8410    6.4100   15.7800 N   0  0  0  0  0  0  0  0  0  0  0  0
    5.7400    7.4840   16.5690 C   0  0  0  0  0  0  0  0  0  0  0  0
    6.7270    7.9150   17.3250 N   0  0  0  0  0  0  0  0  0  0  0  0
    6.2170    9.0030   17.9480 N   0  0  0  0  0  0  0  0  0  0  0  0
    4.9530    9.2480   17.5850 C   0  0  0  0  0  0  0  0  0  0  0  0
    4.5900    8.2850   16.6850 C   0  0  0  0  0  0  0  0  0  0  0  0
  2  1  1  0
  2  6  1  0
  6  5  2  0
  5  4  1  0
  4  3  1  0
  3  2  2  0
M  END
>  <id>  (219) 
6007

>  <inchikey>  (219) 
JVVRJMXHNUAPHW-UHFFFAOYSA-N

>  <alias>  (219) 
c1145c

>  <smiles>  (219) 
Nc1cc[nH]n1

>  <path>  (219) 
/opt/xchem-fragalysis-2/maxwin/CHIKV_Mac_20240920/aligned_files/c1145c/c1145c_hippo.pdb

>  <compound>  (219) 
JVVRJMXHNUAPHW-UHFFFAOYSA-N

>  <target>  (219) 
CHIKV_Mac

>  <tags>  (219) 
['hits', '[Other] Ribose site', '[Other] fragment screen']

>  <reference>  (219) 
None

>  <exports>  (219) 
['/opt/xchem-fragalysis-2/maxwin/CHIKV_HIPPO/web_resources/hit_poses.sdf', '/opt/xchem-fragalysis-2/maxwin/CHIKV_HIPPO/web/web_resources/hit_poses.sdf', '/opt/xchem-fragalysis-2/maxwin/CHIKV_HIPPO/web2/web_resources/hit_poses.sdf']

>  <observation_longname>  (219) 
nan

>  <ConformerSites alias>  (219) 
nan

>  <CanonSites alias>  (219) 
nan

>  <CrystalformSites alias>  (219) 
nan

>  <Quatassemblies alias>  (219) 
nan

>  <Crystalforms alias>  (219) 
nan

$$$$
c1145g
     RDKit          3D

  6  6  0  0  0  0  0  0  0  0999 V2000
    4.5870    9.6390   17.9920 N   0  0  0  0  0  0  0  0  0  0  0  0
    5.2420    8.7270   17.2930 C   0  0  0  0  0  0  0  0  0  0  0  0
    6.5480    8.7060   17.1980 N   0  0  0  0  0  0  0  0  0  0  0  0
    6.8090    7.6080   16.4520 N   0  0  0  0  0  0  0  0  0  0  0  0
    5.6930    6.9630   16.0890 C   0  0  0  0  0  0  0  0  0  0  0  0
    4.6340    7.6590   16.6050 C   0  0  0  0  0  0  0  0  0  0  0  0
  2  1  1  0
  2  6  1  0
  6  5  2  0
  5  4  1  0
  4  3  1  0
  3  2  2  0
M  END
>  <id>  (220) 
6008

>  <inchikey>  (220) 
JVVRJMXHNUAPHW-UHFFFAOYSA-N

>  <alias>  (220) 
c1145g

>  <smiles>  (220) 
Nc1cc[nH]n1

>  <path>  (220) 
/opt/xchem-fragalysis-2/maxwin/CHIKV_Mac_20240920/aligned_files/c1145g/c1145g_hippo.pdb

>  <compound>  (220) 
JVVRJMXHNUAPHW-UHFFFAOYSA-N

>  <target>  (220) 
CHIKV_Mac

>  <tags>  (220) 
['hits', '[Other] Ribose site', '[Other] fragment screen']

>  <reference>  (220) 
None

>  <exports>  (220) 
['/opt/xchem-fragalysis-2/maxwin/CHIKV_HIPPO/web_resources/hit_poses.sdf', '/opt/xchem-fragalysis-2/maxwin/CHIKV_HIPPO/web/web_resources/hit_poses.sdf', '/opt/xchem-fragalysis-2/maxwin/CHIKV_HIPPO/web2/web_resources/hit_poses.sdf']

>  <observation_longname>  (220) 
nan

>  <ConformerSites alias>  (220) 
nan

>  <CanonSites alias>  (220) 
nan

>  <CrystalformSites alias>  (220) 
nan

>  <Quatassemblies alias>  (220) 
nan

>  <Crystalforms alias>  (220) 
nan

$$$$
c1145d
     RDKit          3D

  6  6  0  0  0  0  0  0  0  0999 V2000
   -1.1730    0.3720   19.7720 N   0  0  0  0  0  0  0  0  0  0  0  0
   -0.7130    1.1880   18.8170 C   0  0  0  0  0  0  0  0  0  0  0  0
   -0.2280    0.7280   17.6800 N   0  0  0  0  0  0  0  0  0  0  0  0
    0.1830    1.8420   17.0200 N   0  0  0  0  0  0  0  0  0  0  0  0
   -0.0560    2.9590   17.7160 C   0  0  0  0  0  0  0  0  0  0  0  0
   -0.6410    2.5890   18.9020 C   0  0  0  0  0  0  0  0  0  0  0  0
  2  1  1  0
  2  6  1  0
  6  5  2  0
  5  4  1  0
  4  3  1  0
  3  2  2  0
M  END
>  <id>  (221) 
6009

>  <inchikey>  (221) 
JVVRJMXHNUAPHW-UHFFFAOYSA-N

>  <alias>  (221) 
c1145d

>  <smiles>  (221) 
Nc1cc[nH]n1

>  <path>  (221) 
/opt/xchem-fragalysis-2/maxwin/CHIKV_Mac_20240920/aligned_files/c1145d/c1145d_hippo.pdb

>  <compound>  (221) 
JVVRJMXHNUAPHW-UHFFFAOYSA-N

>  <target>  (221) 
CHIKV_Mac

>  <tags>  (221) 
['[Other] ignore', 'hits']

>  <reference>  (221) 
None

>  <exports>  (221) 
['/opt/xchem-fragalysis-2/maxwin/CHIKV_HIPPO/web_resources/hit_poses.sdf', '/opt/xchem-fragalysis-2/maxwin/CHIKV_HIPPO/web/web_resources/hit_poses.sdf', '/opt/xchem-fragalysis-2/maxwin/CHIKV_HIPPO/web2/web_resources/hit_poses.sdf']

>  <observation_longname>  (221) 
nan

>  <ConformerSites alias>  (221) 
nan

>  <CanonSites alias>  (221) 
nan

>  <CrystalformSites alias>  (221) 
nan

>  <Quatassemblies alias>  (221) 
nan

>  <Crystalforms alias>  (221) 
nan

$$$$
c1145e
     RDKit          3D

  6  6  0  0  0  0  0  0  0  0999 V2000
   -0.3340   18.6640   -4.3080 N   0  0  0  0  0  0  0  0  0  0  0  0
    0.3450   17.5960   -4.7300 C   0  0  0  0  0  0  0  0  0  0  0  0
    1.6580   17.5670   -4.8160 N   0  0  0  0  0  0  0  0  0  0  0  0
    1.9290   16.3430   -5.3270 N   0  0  0  0  0  0  0  0  0  0  0  0
    0.8200   15.6300   -5.5470 C   0  0  0  0  0  0  0  0  0  0  0  0
   -0.2450   16.4000   -5.1700 C   0  0  0  0  0  0  0  0  0  0  0  0
  2  1  1  0
  2  6  1  0
  6  5  2  0
  5  4  1  0
  4  3  1  0
  3  2  2  0
M  END
>  <id>  (222) 
6010

>  <inchikey>  (222) 
JVVRJMXHNUAPHW-UHFFFAOYSA-N

>  <alias>  (222) 
c1145e

>  <smiles>  (222) 
Nc1cc[nH]n1

>  <path>  (222) 
/opt/xchem-fragalysis-2/maxwin/CHIKV_Mac_20240920/aligned_files/c1145e/c1145e_hippo.pdb

>  <compound>  (222) 
JVVRJMXHNUAPHW-UHFFFAOYSA-N

>  <target>  (222) 
CHIKV_Mac

>  <tags>  (222) 
['[Other] ignore', 'hits']

>  <reference>  (222) 
None

>  <exports>  (222) 
['/opt/xchem-fragalysis-2/maxwin/CHIKV_HIPPO/web_resources/hit_poses.sdf', '/opt/xchem-fragalysis-2/maxwin/CHIKV_HIPPO/web/web_resources/hit_poses.sdf', '/opt/xchem-fragalysis-2/maxwin/CHIKV_HIPPO/web2/web_resources/hit_poses.sdf']

>  <observation_longname>  (222) 
nan

>  <ConformerSites alias>  (222) 
nan

>  <CanonSites alias>  (222) 
nan

>  <CrystalformSites alias>  (222) 
nan

>  <Quatassemblies alias>  (222) 
nan

>  <Crystalforms alias>  (222) 
nan

$$$$
c1145f
     RDKit          3D

  6  6  0  0  0  0  0  0  0  0999 V2000
    8.5700  -10.7370    4.3840 N   0  0  0  0  0  0  0  0  0  0  0  0
    7.4320  -10.0940    4.1120 C   0  0  0  0  0  0  0  0  0  0  0  0
    7.3030   -8.7850    3.9980 N   0  0  0  0  0  0  0  0  0  0  0  0
    6.0040   -8.6090    3.6600 N   0  0  0  0  0  0  0  0  0  0  0  0
    5.3450   -9.7700    3.5860 C   0  0  0  0  0  0  0  0  0  0  0  0
    6.2360  -10.7660    3.8720 C   0  0  0  0  0  0  0  0  0  0  0  0
  2  1  1  0
  2  6  1  0
  6  5  2  0
  5  4  1  0
  4  3  1  0
  3  2  2  0
M  END
>  <id>  (223) 
6011

>  <inchikey>  (223) 
JVVRJMXHNUAPHW-UHFFFAOYSA-N

>  <alias>  (223) 
c1145f

>  <smiles>  (223) 
Nc1cc[nH]n1

>  <path>  (223) 
/opt/xchem-fragalysis-2/maxwin/CHIKV_Mac_20240920/aligned_files/c1145f/c1145f_hippo.pdb

>  <compound>  (223) 
JVVRJMXHNUAPHW-UHFFFAOYSA-N

>  <target>  (223) 
CHIKV_Mac

>  <tags>  (223) 
['[Other] ignore', 'hits']

>  <reference>  (223) 
None

>  <exports>  (223) 
['/opt/xchem-fragalysis-2/maxwin/CHIKV_HIPPO/web_resources/hit_poses.sdf', '/opt/xchem-fragalysis-2/maxwin/CHIKV_HIPPO/web/web_resources/hit_poses.sdf', '/opt/xchem-fragalysis-2/maxwin/CHIKV_HIPPO/web2/web_resources/hit_poses.sdf']

>  <observation_longname>  (223) 
nan

>  <ConformerSites alias>  (223) 
nan

>  <CanonSites alias>  (223) 
nan

>  <CrystalformSites alias>  (223) 
nan

>  <Quatassemblies alias>  (223) 
nan

>  <Crystalforms alias>  (223) 
nan

$$$$
c1145a
     RDKit          3D

  6  6  0  0  0  0  0  0  0  0999 V2000
    4.9670    9.8440   17.4030 N   0  0  0  0  0  0  0  0  0  0  0  0
    5.5980    8.6960   17.1680 C   0  0  0  0  0  0  0  0  0  0  0  0
    6.9060    8.5650   17.1370 N   0  0  0  0  0  0  0  0  0  0  0  0
    7.0980    7.2520   16.8870 N   0  0  0  0  0  0  0  0  0  0  0  0
    5.9430    6.5950   16.7620 C   0  0  0  0  0  0  0  0  0  0  0  0
    4.9380    7.4970   16.9360 C   0  0  0  0  0  0  0  0  0  0  0  0
  2  1  1  0
  2  6  1  0
  6  5  2  0
  5  4  1  0
  4  3  1  0
  3  2  2  0
M  END
>  <id>  (224) 
6012

>  <inchikey>  (224) 
JVVRJMXHNUAPHW-UHFFFAOYSA-N

>  <alias>  (224) 
c1145a

>  <smiles>  (224) 
Nc1cc[nH]n1

>  <path>  (224) 
/opt/xchem-fragalysis-2/maxwin/CHIKV_Mac_20240920/aligned_files/c1145a/c1145a_hippo.pdb

>  <compound>  (224) 
JVVRJMXHNUAPHW-UHFFFAOYSA-N

>  <target>  (224) 
CHIKV_Mac

>  <tags>  (224) 
['hits', '[Other] Ribose site', '[Other] fragment screen']

>  <reference>  (224) 
None

>  <exports>  (224) 
['/opt/xchem-fragalysis-2/maxwin/CHIKV_HIPPO/web_resources/hit_poses.sdf', '/opt/xchem-fragalysis-2/maxwin/CHIKV_HIPPO/web/web_resources/hit_poses.sdf', '/opt/xchem-fragalysis-2/maxwin/CHIKV_HIPPO/web2/web_resources/hit_poses.sdf']

>  <observation_longname>  (224) 
nan

>  <ConformerSites alias>  (224) 
nan

>  <CanonSites alias>  (224) 
nan

>  <CrystalformSites alias>  (224) 
nan

>  <Quatassemblies alias>  (224) 
nan

>  <Crystalforms alias>  (224) 
nan

$$$$
c1151a
     RDKit          3D

  6  6  0  0  0  0  0  0  0  0999 V2000
   11.5140    7.8950   14.8720 O   0  0  0  0  0  0  0  0  0  0  0  0
   11.3270    7.0510   13.9950 C   0  0  0  0  0  0  0  0  0  0  0  0
   10.1330    6.7140   13.4760 N   0  0  0  0  0  0  0  0  0  0  0  0
   10.2360    5.6250   12.5170 C   0  0  0  0  0  0  0  0  0  0  0  0
   11.7450    5.4490   12.3630 C   0  0  0  0  0  0  0  0  0  0  0  0
   12.2800    6.3160   13.4140 N   0  0  0  0  0  0  0  0  0  0  0  0
  2  1  2  0
  2  6  1  0
  6  5  1  0
  5  4  1  0
  4  3  1  0
  3  2  1  0
M  END
>  <id>  (225) 
6013

>  <inchikey>  (225) 
YAMHXTCMCPHKLN-UHFFFAOYSA-N

>  <alias>  (225) 
c1151a

>  <smiles>  (225) 
O=C1NCCN1

>  <path>  (225) 
/opt/xchem-fragalysis-2/maxwin/CHIKV_Mac_20240920/aligned_files/c1151a/c1151a_hippo.pdb

>  <compound>  (225) 
YAMHXTCMCPHKLN-UHFFFAOYSA-N

>  <target>  (225) 
CHIKV_Mac

>  <tags>  (225) 
['hits', '[Other] Phosphate site', '[Other] fragment screen']

>  <reference>  (225) 
None

>  <exports>  (225) 
['/opt/xchem-fragalysis-2/maxwin/CHIKV_HIPPO/web_resources/hit_poses.sdf', '/opt/xchem-fragalysis-2/maxwin/CHIKV_HIPPO/web/web_resources/hit_poses.sdf', '/opt/xchem-fragalysis-2/maxwin/CHIKV_HIPPO/web2/web_resources/hit_poses.sdf']

>  <observation_longname>  (225) 
nan

>  <ConformerSites alias>  (225) 
nan

>  <CanonSites alias>  (225) 
nan

>  <CrystalformSites alias>  (225) 
nan

>  <Quatassemblies alias>  (225) 
nan

>  <Crystalforms alias>  (225) 
nan

$$$$
c1151b
     RDKit          3D

  6  6  0  0  0  0  0  0  0  0999 V2000
    4.7450    9.8030   17.7230 O   0  0  0  0  0  0  0  0  0  0  0  0
    5.1360    8.7130   17.3490 C   0  0  0  0  0  0  0  0  0  0  0  0
    5.7360    7.7950   18.1150 N   0  0  0  0  0  0  0  0  0  0  0  0
    6.2290    6.6640   17.3330 C   0  0  0  0  0  0  0  0  0  0  0  0
    5.5720    6.8900   15.9790 C   0  0  0  0  0  0  0  0  0  0  0  0
    5.0670    8.2550   16.0980 N   0  0  0  0  0  0  0  0  0  0  0  0
  2  1  2  0
  2  6  1  0
  6  5  1  0
  5  4  1  0
  4  3  1  0
  3  2  1  0
M  END
>  <id>  (226) 
6014

>  <inchikey>  (226) 
YAMHXTCMCPHKLN-UHFFFAOYSA-N

>  <alias>  (226) 
c1151b

>  <smiles>  (226) 
O=C1NCCN1

>  <path>  (226) 
/opt/xchem-fragalysis-2/maxwin/CHIKV_Mac_20240920/aligned_files/c1151b/c1151b_hippo.pdb

>  <compound>  (226) 
YAMHXTCMCPHKLN-UHFFFAOYSA-N

>  <target>  (226) 
CHIKV_Mac

>  <tags>  (226) 
['hits', '[Other] Ribose site', '[Other] fragment screen']

>  <reference>  (226) 
None

>  <exports>  (226) 
['/opt/xchem-fragalysis-2/maxwin/CHIKV_HIPPO/web_resources/hit_poses.sdf', '/opt/xchem-fragalysis-2/maxwin/CHIKV_HIPPO/web/web_resources/hit_poses.sdf', '/opt/xchem-fragalysis-2/maxwin/CHIKV_HIPPO/web2/web_resources/hit_poses.sdf']

>  <observation_longname>  (226) 
nan

>  <ConformerSites alias>  (226) 
nan

>  <CanonSites alias>  (226) 
nan

>  <CrystalformSites alias>  (226) 
nan

>  <Quatassemblies alias>  (226) 
nan

>  <Crystalforms alias>  (226) 
nan

$$$$
c1151e
     RDKit          3D

  6  6  0  0  0  0  0  0  0  0999 V2000
    4.5970    9.6540   17.8250 O   0  0  0  0  0  0  0  0  0  0  0  0
    5.0650    8.6070   17.3860 C   0  0  0  0  0  0  0  0  0  0  0  0
    4.9920    8.1860   16.1100 N   0  0  0  0  0  0  0  0  0  0  0  0
    5.6250    6.8880   15.9210 C   0  0  0  0  0  0  0  0  0  0  0  0
    6.3860    6.7110   17.2240 C   0  0  0  0  0  0  0  0  0  0  0  0
    5.7730    7.7230   18.0810 N   0  0  0  0  0  0  0  0  0  0  0  0
  2  1  2  0
  2  6  1  0
  6  5  1  0
  5  4  1  0
  4  3  1  0
  3  2  1  0
M  END
>  <id>  (227) 
6015

>  <inchikey>  (227) 
YAMHXTCMCPHKLN-UHFFFAOYSA-N

>  <alias>  (227) 
c1151e

>  <smiles>  (227) 
O=C1NCCN1

>  <path>  (227) 
/opt/xchem-fragalysis-2/maxwin/CHIKV_Mac_20240920/aligned_files/c1151e/c1151e_hippo.pdb

>  <compound>  (227) 
YAMHXTCMCPHKLN-UHFFFAOYSA-N

>  <target>  (227) 
CHIKV_Mac

>  <tags>  (227) 
['hits', '[Other] Ribose site', '[Other] fragment screen']

>  <reference>  (227) 
None

>  <exports>  (227) 
['/opt/xchem-fragalysis-2/maxwin/CHIKV_HIPPO/web_resources/hit_poses.sdf', '/opt/xchem-fragalysis-2/maxwin/CHIKV_HIPPO/web/web_resources/hit_poses.sdf', '/opt/xchem-fragalysis-2/maxwin/CHIKV_HIPPO/web2/web_resources/hit_poses.sdf']

>  <observation_longname>  (227) 
nan

>  <ConformerSites alias>  (227) 
nan

>  <CanonSites alias>  (227) 
nan

>  <CrystalformSites alias>  (227) 
nan

>  <Quatassemblies alias>  (227) 
nan

>  <Crystalforms alias>  (227) 
nan

$$$$
c1151f
     RDKit          3D

  6  6  0  0  0  0  0  0  0  0999 V2000
   11.3440    7.9210   14.7660 O   0  0  0  0  0  0  0  0  0  0  0  0
   11.1710    7.0330   13.9220 C   0  0  0  0  0  0  0  0  0  0  0  0
    9.9820    6.5680   13.5120 N   0  0  0  0  0  0  0  0  0  0  0  0
   10.1100    5.5010   12.5230 C   0  0  0  0  0  0  0  0  0  0  0  0
   11.6170    5.4730   12.2520 C   0  0  0  0  0  0  0  0  0  0  0  0
   12.1400    6.4000   13.2520 N   0  0  0  0  0  0  0  0  0  0  0  0
  2  1  2  0
  2  6  1  0
  6  5  1  0
  5  4  1  0
  4  3  1  0
  3  2  1  0
M  END
>  <id>  (228) 
6016

>  <inchikey>  (228) 
YAMHXTCMCPHKLN-UHFFFAOYSA-N

>  <alias>  (228) 
c1151f

>  <smiles>  (228) 
O=C1NCCN1

>  <path>  (228) 
/opt/xchem-fragalysis-2/maxwin/CHIKV_Mac_20240920/aligned_files/c1151f/c1151f_hippo.pdb

>  <compound>  (228) 
YAMHXTCMCPHKLN-UHFFFAOYSA-N

>  <target>  (228) 
CHIKV_Mac

>  <tags>  (228) 
['hits', '[Other] Phosphate site', '[Other] fragment screen']

>  <reference>  (228) 
None

>  <exports>  (228) 
['/opt/xchem-fragalysis-2/maxwin/CHIKV_HIPPO/web_resources/hit_poses.sdf', '/opt/xchem-fragalysis-2/maxwin/CHIKV_HIPPO/web/web_resources/hit_poses.sdf', '/opt/xchem-fragalysis-2/maxwin/CHIKV_HIPPO/web2/web_resources/hit_poses.sdf']

>  <observation_longname>  (228) 
nan

>  <ConformerSites alias>  (228) 
nan

>  <CanonSites alias>  (228) 
nan

>  <CrystalformSites alias>  (228) 
nan

>  <Quatassemblies alias>  (228) 
nan

>  <Crystalforms alias>  (228) 
nan

$$$$
c1151g
     RDKit          3D

  6  6  0  0  0  0  0  0  0  0999 V2000
    4.6150    9.6890   17.6660 O   0  0  0  0  0  0  0  0  0  0  0  0
    5.2320    8.7280   17.2100 C   0  0  0  0  0  0  0  0  0  0  0  0
    4.8690    8.0080   16.1390 N   0  0  0  0  0  0  0  0  0  0  0  0
    5.7900    6.9130   15.8620 C   0  0  0  0  0  0  0  0  0  0  0  0
    6.8380    7.0600   16.9680 C   0  0  0  0  0  0  0  0  0  0  0  0
    6.3660    8.2230   17.7130 N   0  0  0  0  0  0  0  0  0  0  0  0
  2  1  2  0
  2  6  1  0
  6  5  1  0
  5  4  1  0
  4  3  1  0
  3  2  1  0
M  END
>  <id>  (229) 
6017

>  <inchikey>  (229) 
YAMHXTCMCPHKLN-UHFFFAOYSA-N

>  <alias>  (229) 
c1151g

>  <smiles>  (229) 
O=C1NCCN1

>  <path>  (229) 
/opt/xchem-fragalysis-2/maxwin/CHIKV_Mac_20240920/aligned_files/c1151g/c1151g_hippo.pdb

>  <compound>  (229) 
YAMHXTCMCPHKLN-UHFFFAOYSA-N

>  <target>  (229) 
CHIKV_Mac

>  <tags>  (229) 
['hits', '[Other] Ribose site', '[Other] fragment screen']

>  <reference>  (229) 
None

>  <exports>  (229) 
['/opt/xchem-fragalysis-2/maxwin/CHIKV_HIPPO/web_resources/hit_poses.sdf', '/opt/xchem-fragalysis-2/maxwin/CHIKV_HIPPO/web/web_resources/hit_poses.sdf', '/opt/xchem-fragalysis-2/maxwin/CHIKV_HIPPO/web2/web_resources/hit_poses.sdf']

>  <observation_longname>  (229) 
nan

>  <ConformerSites alias>  (229) 
nan

>  <CanonSites alias>  (229) 
nan

>  <CrystalformSites alias>  (229) 
nan

>  <Quatassemblies alias>  (229) 
nan

>  <Crystalforms alias>  (229) 
nan

$$$$
c1151j
     RDKit          3D

  6  6  0  0  0  0  0  0  0  0999 V2000
    4.7250    9.7730   17.7640 O   0  0  0  0  0  0  0  0  0  0  0  0
    5.2000    8.7030   17.3760 C   0  0  0  0  0  0  0  0  0  0  0  0
    5.8370    7.7960   18.1470 N   0  0  0  0  0  0  0  0  0  0  0  0
    6.3030    6.6430   17.3740 C   0  0  0  0  0  0  0  0  0  0  0  0
    5.6640    6.8730   16.0020 C   0  0  0  0  0  0  0  0  0  0  0  0
    5.1130    8.2230   16.1330 N   0  0  0  0  0  0  0  0  0  0  0  0
  2  1  2  0
  2  6  1  0
  6  5  1  0
  5  4  1  0
  4  3  1  0
  3  2  1  0
M  END
>  <id>  (230) 
6018

>  <inchikey>  (230) 
YAMHXTCMCPHKLN-UHFFFAOYSA-N

>  <alias>  (230) 
c1151j

>  <smiles>  (230) 
O=C1NCCN1

>  <path>  (230) 
/opt/xchem-fragalysis-2/maxwin/CHIKV_Mac_20240920/aligned_files/c1151j/c1151j_hippo.pdb

>  <compound>  (230) 
YAMHXTCMCPHKLN-UHFFFAOYSA-N

>  <target>  (230) 
CHIKV_Mac

>  <tags>  (230) 
['hits', '[Other] Ribose site', '[Other] fragment screen']

>  <reference>  (230) 
None

>  <exports>  (230) 
['/opt/xchem-fragalysis-2/maxwin/CHIKV_HIPPO/web_resources/hit_poses.sdf', '/opt/xchem-fragalysis-2/maxwin/CHIKV_HIPPO/web/web_resources/hit_poses.sdf', '/opt/xchem-fragalysis-2/maxwin/CHIKV_HIPPO/web2/web_resources/hit_poses.sdf']

>  <observation_longname>  (230) 
nan

>  <ConformerSites alias>  (230) 
nan

>  <CanonSites alias>  (230) 
nan

>  <CrystalformSites alias>  (230) 
nan

>  <Quatassemblies alias>  (230) 
nan

>  <Crystalforms alias>  (230) 
nan

$$$$
c1151k
     RDKit          3D

  6  6  0  0  0  0  0  0  0  0999 V2000
   14.7040   11.6340   10.2380 O   0  0  0  0  0  0  0  0  0  0  0  0
   14.6280   11.8540   11.4410 C   0  0  0  0  0  0  0  0  0  0  0  0
   14.9340   10.9790   12.4130 N   0  0  0  0  0  0  0  0  0  0  0  0
   14.7210   11.5350   13.7440 C   0  0  0  0  0  0  0  0  0  0  0  0
   14.4180   13.0000   13.4540 C   0  0  0  0  0  0  0  0  0  0  0  0
   14.2640   13.0170   12.0000 N   0  0  0  0  0  0  0  0  0  0  0  0
  2  1  2  0
  2  6  1  0
  6  5  1  0
  5  4  1  0
  4  3  1  0
  3  2  1  0
M  END
>  <id>  (231) 
6019

>  <inchikey>  (231) 
YAMHXTCMCPHKLN-UHFFFAOYSA-N

>  <alias>  (231) 
c1151k

>  <smiles>  (231) 
O=C1NCCN1

>  <path>  (231) 
/opt/xchem-fragalysis-2/maxwin/CHIKV_Mac_20240920/aligned_files/c1151k/c1151k_hippo.pdb

>  <compound>  (231) 
YAMHXTCMCPHKLN-UHFFFAOYSA-N

>  <target>  (231) 
CHIKV_Mac

>  <tags>  (231) 
['[Other] Adenine site', 'hits', '[Other] fragment screen']

>  <reference>  (231) 
None

>  <exports>  (231) 
['/opt/xchem-fragalysis-2/maxwin/CHIKV_HIPPO/web_resources/hit_poses.sdf', '/opt/xchem-fragalysis-2/maxwin/CHIKV_HIPPO/web/web_resources/hit_poses.sdf', '/opt/xchem-fragalysis-2/maxwin/CHIKV_HIPPO/web2/web_resources/hit_poses.sdf']

>  <observation_longname>  (231) 
CHIKV_MacB-x1151_D_403_1_CHIKV_MacB-x2352+C+401+1

>  <ConformerSites alias>  (231) 
1a - c2352/C/401

>  <CanonSites alias>  (231) 
1 - c2352/C/401/1

>  <CrystalformSites alias>  (231) 
F1a - c0270/A/304

>  <Quatassemblies alias>  (231) 
A1 - monomer

>  <Crystalforms alias>  (231) 
F1 - P31-4fold-NCS

$$$$
c1151d
     RDKit          3D

  6  6  0  0  0  0  0  0  0  0999 V2000
   11.4890    7.8530   14.8970 O   0  0  0  0  0  0  0  0  0  0  0  0
   11.3400    7.0460   13.9910 C   0  0  0  0  0  0  0  0  0  0  0  0
   10.1530    6.6220   13.5180 N   0  0  0  0  0  0  0  0  0  0  0  0
   10.2990    5.5340   12.5510 C   0  0  0  0  0  0  0  0  0  0  0  0
   11.8130    5.4270   12.3860 C   0  0  0  0  0  0  0  0  0  0  0  0
   12.3290    6.3860   13.3680 N   0  0  0  0  0  0  0  0  0  0  0  0
  2  1  2  0
  2  6  1  0
  6  5  1  0
  5  4  1  0
  4  3  1  0
  3  2  1  0
M  END
>  <id>  (232) 
6020

>  <inchikey>  (232) 
YAMHXTCMCPHKLN-UHFFFAOYSA-N

>  <alias>  (232) 
c1151d

>  <smiles>  (232) 
O=C1NCCN1

>  <path>  (232) 
/opt/xchem-fragalysis-2/maxwin/CHIKV_Mac_20240920/aligned_files/c1151d/c1151d_hippo.pdb

>  <compound>  (232) 
YAMHXTCMCPHKLN-UHFFFAOYSA-N

>  <target>  (232) 
CHIKV_Mac

>  <tags>  (232) 
['hits', '[Other] Phosphate site', '[Other] fragment screen']

>  <reference>  (232) 
None

>  <exports>  (232) 
['/opt/xchem-fragalysis-2/maxwin/CHIKV_HIPPO/web_resources/hit_poses.sdf', '/opt/xchem-fragalysis-2/maxwin/CHIKV_HIPPO/web/web_resources/hit_poses.sdf', '/opt/xchem-fragalysis-2/maxwin/CHIKV_HIPPO/web2/web_resources/hit_poses.sdf']

>  <observation_longname>  (232) 
nan

>  <ConformerSites alias>  (232) 
nan

>  <CanonSites alias>  (232) 
nan

>  <CrystalformSites alias>  (232) 
nan

>  <Quatassemblies alias>  (232) 
nan

>  <Crystalforms alias>  (232) 
nan

$$$$
c1151c
     RDKit          3D

  6  6  0  0  0  0  0  0  0  0999 V2000
   15.0140   10.8940   14.4460 O   0  0  0  0  0  0  0  0  0  0  0  0
   14.7120   11.3870   13.3590 C   0  0  0  0  0  0  0  0  0  0  0  0
   14.1100   12.5690   13.1770 N   0  0  0  0  0  0  0  0  0  0  0  0
   13.8490   12.8520   11.7740 C   0  0  0  0  0  0  0  0  0  0  0  0
   14.5090   11.6740   11.0620 C   0  0  0  0  0  0  0  0  0  0  0  0
   14.9320   10.8250   12.1670 N   0  0  0  0  0  0  0  0  0  0  0  0
  2  1  2  0
  2  6  1  0
  6  5  1  0
  5  4  1  0
  4  3  1  0
  3  2  1  0
M  END
>  <id>  (233) 
6021

>  <inchikey>  (233) 
YAMHXTCMCPHKLN-UHFFFAOYSA-N

>  <alias>  (233) 
c1151c

>  <smiles>  (233) 
O=C1NCCN1

>  <path>  (233) 
/opt/xchem-fragalysis-2/maxwin/CHIKV_Mac_20240920/aligned_files/c1151c/c1151c_hippo.pdb

>  <compound>  (233) 
YAMHXTCMCPHKLN-UHFFFAOYSA-N

>  <target>  (233) 
CHIKV_Mac

>  <tags>  (233) 
['[Other] Adenine site', 'hits', '[Other] fragment screen']

>  <reference>  (233) 
None

>  <exports>  (233) 
['/opt/xchem-fragalysis-2/maxwin/CHIKV_HIPPO/web_resources/hit_poses.sdf', '/opt/xchem-fragalysis-2/maxwin/CHIKV_HIPPO/web/web_resources/hit_poses.sdf', '/opt/xchem-fragalysis-2/maxwin/CHIKV_HIPPO/web2/web_resources/hit_poses.sdf']

>  <observation_longname>  (233) 
CHIKV_MacB-x1151_A_306_1_CHIKV_MacB-x2352+C+401+1

>  <ConformerSites alias>  (233) 
1a - c2352/C/401

>  <CanonSites alias>  (233) 
1 - c2352/C/401/1

>  <CrystalformSites alias>  (233) 
F1a - c0270/A/304

>  <Quatassemblies alias>  (233) 
A1 - monomer

>  <Crystalforms alias>  (233) 
F1 - P31-4fold-NCS

$$$$
c1151i
     RDKit          3D

  6  6  0  0  0  0  0  0  0  0999 V2000
   11.5200    7.8590   14.7660 O   0  0  0  0  0  0  0  0  0  0  0  0
   11.3060    6.9770   13.9320 C   0  0  0  0  0  0  0  0  0  0  0  0
   10.0960    6.5850   13.5000 N   0  0  0  0  0  0  0  0  0  0  0  0
   10.1650    5.5140   12.5230 C   0  0  0  0  0  0  0  0  0  0  0  0
   11.6720    5.2630   12.4010 C   0  0  0  0  0  0  0  0  0  0  0  0
   12.2440    6.2420   13.3180 N   0  0  0  0  0  0  0  0  0  0  0  0
  2  1  2  0
  2  6  1  0
  6  5  1  0
  5  4  1  0
  4  3  1  0
  3  2  1  0
M  END
>  <id>  (234) 
6022

>  <inchikey>  (234) 
YAMHXTCMCPHKLN-UHFFFAOYSA-N

>  <alias>  (234) 
c1151i

>  <smiles>  (234) 
O=C1NCCN1

>  <path>  (234) 
/opt/xchem-fragalysis-2/maxwin/CHIKV_Mac_20240920/aligned_files/c1151i/c1151i_hippo.pdb

>  <compound>  (234) 
YAMHXTCMCPHKLN-UHFFFAOYSA-N

>  <target>  (234) 
CHIKV_Mac

>  <tags>  (234) 
['hits', '[Other] Phosphate site', '[Other] fragment screen']

>  <reference>  (234) 
None

>  <exports>  (234) 
['/opt/xchem-fragalysis-2/maxwin/CHIKV_HIPPO/web_resources/hit_poses.sdf', '/opt/xchem-fragalysis-2/maxwin/CHIKV_HIPPO/web/web_resources/hit_poses.sdf', '/opt/xchem-fragalysis-2/maxwin/CHIKV_HIPPO/web2/web_resources/hit_poses.sdf']

>  <observation_longname>  (234) 
nan

>  <ConformerSites alias>  (234) 
nan

>  <CanonSites alias>  (234) 
nan

>  <CrystalformSites alias>  (234) 
nan

>  <Quatassemblies alias>  (234) 
nan

>  <Crystalforms alias>  (234) 
nan

$$$$
c1151h
     RDKit          3D

  6  6  0  0  0  0  0  0  0  0999 V2000
   14.6180   11.5070    9.8420 O   0  0  0  0  0  0  0  0  0  0  0  0
   14.4840   11.7210   11.0460 C   0  0  0  0  0  0  0  0  0  0  0  0
   14.7800   10.8530   12.0270 N   0  0  0  0  0  0  0  0  0  0  0  0
   14.4040   11.3530   13.3430 C   0  0  0  0  0  0  0  0  0  0  0  0
   13.9650   12.7880   13.0450 C   0  0  0  0  0  0  0  0  0  0  0  0
   13.9830   12.8370   11.5870 N   0  0  0  0  0  0  0  0  0  0  0  0
  2  1  2  0
  2  6  1  0
  6  5  1  0
  5  4  1  0
  4  3  1  0
  3  2  1  0
M  END
>  <id>  (235) 
6023

>  <inchikey>  (235) 
YAMHXTCMCPHKLN-UHFFFAOYSA-N

>  <alias>  (235) 
c1151h

>  <smiles>  (235) 
O=C1NCCN1

>  <path>  (235) 
/opt/xchem-fragalysis-2/maxwin/CHIKV_Mac_20240920/aligned_files/c1151h/c1151h_hippo.pdb

>  <compound>  (235) 
YAMHXTCMCPHKLN-UHFFFAOYSA-N

>  <target>  (235) 
CHIKV_Mac

>  <tags>  (235) 
['[Other] Adenine site', 'hits', '[Other] fragment screen']

>  <reference>  (235) 
None

>  <exports>  (235) 
['/opt/xchem-fragalysis-2/maxwin/CHIKV_HIPPO/web_resources/hit_poses.sdf', '/opt/xchem-fragalysis-2/maxwin/CHIKV_HIPPO/web/web_resources/hit_poses.sdf', '/opt/xchem-fragalysis-2/maxwin/CHIKV_HIPPO/web2/web_resources/hit_poses.sdf']

>  <observation_longname>  (235) 
nan

>  <ConformerSites alias>  (235) 
nan

>  <CanonSites alias>  (235) 
nan

>  <CrystalformSites alias>  (235) 
nan

>  <Quatassemblies alias>  (235) 
nan

>  <Crystalforms alias>  (235) 
nan

$$$$
c1175a
     RDKit          3D

 14 15  0  0  0  0  0  0  0  0999 V2000
   17.0020   -2.9550   21.3270 C   0  0  0  0  0  0  0  0  0  0  0  0
   16.2090   -3.1320   20.1520 O   0  0  0  0  0  0  0  0  0  0  0  0
   16.3710   -2.2250   19.1420 C   0  0  0  0  0  0  0  0  0  0  0  0
   15.6490   -1.0460   19.0860 C   0  0  0  0  0  0  0  0  0  0  0  0
   15.9710   -0.0880   18.1410 C   0  0  0  0  0  0  0  0  0  0  0  0
   17.0090   -0.2990   17.2360 C   0  0  0  0  0  0  0  0  0  0  0  0
   17.6890   -1.5130   17.2770 C   0  0  0  0  0  0  0  0  0  0  0  0
   17.3750   -2.4700   18.2240 C   0  0  0  0  0  0  0  0  0  0  0  0
   17.4310    0.7740   16.2860 C   0  0  0  0  0  0  0  0  0  0  0  0
   16.3400    1.5390   15.5840 C   0  0  0  0  0  0  0  0  0  0  0  0
   16.9150    2.3730   14.4500 C   0  0  0  0  0  0  0  0  0  0  0  0
   18.1230    3.1040   14.8240 N   0  0  0  0  0  0  0  0  0  0  0  0
   19.1880    2.1770   15.1780 C   0  0  0  0  0  0  0  0  0  0  0  0
   18.7270    1.0830   16.0780 C   0  0  0  0  0  0  0  0  0  0  0  0
  2  1  1  0
  3  2  1  0
  3  8  2  0
  8  7  1  0
  7  6  2  0
  6  5  1  0
  5  4  2  0
  4  3  1  0
  9  6  1  0
  9 14  2  0
 14 13  1  0
 13 12  1  0
 12 11  1  0
 11 10  1  0
 10  9  1  0
M  END
>  <id>  (236) 
6024

>  <inchikey>  (236) 
XWENGDIACIBQQL-UHFFFAOYSA-N

>  <alias>  (236) 
c1175a

>  <smiles>  (236) 
COc1ccc(C2=CCNCC2)cc1

>  <path>  (236) 
/opt/xchem-fragalysis-2/maxwin/CHIKV_Mac_20240920/aligned_files/c1175a/c1175a_hippo.pdb

>  <compound>  (236) 
XWENGDIACIBQQL-UHFFFAOYSA-N

>  <target>  (236) 
CHIKV_Mac

>  <tags>  (236) 
['hits', '[Other] Trp148 site', '[Other] fragment screen']

>  <reference>  (236) 
None

>  <exports>  (236) 
['/opt/xchem-fragalysis-2/maxwin/CHIKV_HIPPO/web_resources/hit_poses.sdf', '/opt/xchem-fragalysis-2/maxwin/CHIKV_HIPPO/web/web_resources/hit_poses.sdf', '/opt/xchem-fragalysis-2/maxwin/CHIKV_HIPPO/web2/web_resources/hit_poses.sdf']

>  <observation_longname>  (236) 
nan

>  <ConformerSites alias>  (236) 
nan

>  <CanonSites alias>  (236) 
nan

>  <CrystalformSites alias>  (236) 
nan

>  <Quatassemblies alias>  (236) 
nan

>  <Crystalforms alias>  (236) 
nan

$$$$
c1175b
     RDKit          3D

 14 15  0  0  0  0  0  0  0  0999 V2000
   17.1580   -4.4390   20.3550 C   0  0  0  0  0  0  0  0  0  0  0  0
   16.1880   -3.4820   19.9290 O   0  0  0  0  0  0  0  0  0  0  0  0
   16.5910   -2.4710   19.0930 C   0  0  0  0  0  0  0  0  0  0  0  0
   17.7190   -2.5060   18.2890 C   0  0  0  0  0  0  0  0  0  0  0  0
   17.9990   -1.4410   17.4510 C   0  0  0  0  0  0  0  0  0  0  0  0
   17.1640   -0.3260   17.4070 C   0  0  0  0  0  0  0  0  0  0  0  0
   16.0390   -0.3070   18.2270 C   0  0  0  0  0  0  0  0  0  0  0  0
   15.7520   -1.3710   19.0630 C   0  0  0  0  0  0  0  0  0  0  0  0
   17.4500    0.8150   16.4810 C   0  0  0  0  0  0  0  0  0  0  0  0
   18.8640    1.3230   16.3770 C   0  0  0  0  0  0  0  0  0  0  0  0
   19.0430    2.1040   15.0820 C   0  0  0  0  0  0  0  0  0  0  0  0
   18.0310    3.1540   14.9060 N   0  0  0  0  0  0  0  0  0  0  0  0
   16.6970    2.5710   14.8400 C   0  0  0  0  0  0  0  0  0  0  0  0
   16.4870    1.4130   15.7550 C   0  0  0  0  0  0  0  0  0  0  0  0
  2  1  1  0
  3  2  1  0
  3  8  2  0
  8  7  1  0
  7  6  2  0
  6  5  1  0
  5  4  2  0
  4  3  1  0
  9  6  1  0
  9 14  2  0
 14 13  1  0
 13 12  1  0
 12 11  1  0
 11 10  1  0
 10  9  1  0
M  END
>  <id>  (237) 
6025

>  <inchikey>  (237) 
XWENGDIACIBQQL-UHFFFAOYSA-N

>  <alias>  (237) 
c1175b

>  <smiles>  (237) 
COc1ccc(C2=CCNCC2)cc1

>  <path>  (237) 
/opt/xchem-fragalysis-2/maxwin/CHIKV_Mac_20240920/aligned_files/c1175b/c1175b_hippo.pdb

>  <compound>  (237) 
XWENGDIACIBQQL-UHFFFAOYSA-N

>  <target>  (237) 
CHIKV_Mac

>  <tags>  (237) 
['hits', '[Other] Trp148 site', '[Other] fragment screen']

>  <reference>  (237) 
None

>  <exports>  (237) 
['/opt/xchem-fragalysis-2/maxwin/CHIKV_HIPPO/web_resources/hit_poses.sdf', '/opt/xchem-fragalysis-2/maxwin/CHIKV_HIPPO/web/web_resources/hit_poses.sdf', '/opt/xchem-fragalysis-2/maxwin/CHIKV_HIPPO/web2/web_resources/hit_poses.sdf']

>  <observation_longname>  (237) 
nan

>  <ConformerSites alias>  (237) 
nan

>  <CanonSites alias>  (237) 
nan

>  <CrystalformSites alias>  (237) 
nan

>  <Quatassemblies alias>  (237) 
nan

>  <Crystalforms alias>  (237) 
nan

$$$$
c1182a
     RDKit          3D

  9  9  0  0  0  0  0  0  0  0999 V2000
    8.3540    8.4590   15.2540 N   0  0  0  0  0  0  0  0  0  0  0  0
    7.6630    7.7810   15.8530 C   0  0  0  0  0  0  0  0  0  0  0  0
    6.7570    6.8810   16.5860 C   0  0  2  0  0  0  0  0  0  0  0  0
    5.3710    6.8010   15.9200 C   0  0  0  0  0  0  0  0  0  0  0  0
    4.6550    8.1300   16.1270 C   0  0  0  0  0  0  0  0  0  0  0  0
    6.3890    7.4180   17.9620 C   0  0  0  0  0  0  0  0  0  0  0  0
    5.2700    8.7640   17.6220 S   0  0  0  0  0  0  0  0  0  0  0  0
    6.0250    9.9660   17.3950 O   0  0  0  0  0  0  0  0  0  0  0  0
    4.2180    8.8130   18.6030 O   0  0  0  0  0  0  0  0  0  0  0  0
  8  7  2  0
  9  7  2  0
  7  5  1  0
  5  4  1  0
  4  3  1  0
  6  3  1  0
  7  6  1  0
  3  2  1  6
  2  1  3  0
M  END
>  <id>  (238) 
6026

>  <inchikey>  (238) 
CHNZCZASRHSRAC-YFKPBYRVSA-N

>  <alias>  (238) 
c1182a

>  <smiles>  (238) 
N#C[C@@H]1CCS(=O)(=O)C1

>  <path>  (238) 
/opt/xchem-fragalysis-2/maxwin/CHIKV_Mac_20240920/aligned_files/c1182a/c1182a_hippo.pdb

>  <compound>  (238) 
CHNZCZASRHSRAC-UHFFFAOYSA-N

>  <target>  (238) 
CHIKV_Mac

>  <tags>  (238) 
['hits', '[Other] Ribose site', '[Other] fragment screen']

>  <reference>  (238) 
None

>  <exports>  (238) 
['/opt/xchem-fragalysis-2/maxwin/CHIKV_HIPPO/web_resources/hit_poses.sdf', '/opt/xchem-fragalysis-2/maxwin/CHIKV_HIPPO/web/web_resources/hit_poses.sdf', '/opt/xchem-fragalysis-2/maxwin/CHIKV_HIPPO/web2/web_resources/hit_poses.sdf']

>  <observation_longname>  (238) 
nan

>  <ConformerSites alias>  (238) 
nan

>  <CanonSites alias>  (238) 
nan

>  <CrystalformSites alias>  (238) 
nan

>  <Quatassemblies alias>  (238) 
nan

>  <Crystalforms alias>  (238) 
nan

$$$$
c1182b
     RDKit          3D

  9  9  0  0  0  0  0  0  0  0999 V2000
    8.3890    8.6400   15.0110 N   0  0  0  0  0  0  0  0  0  0  0  0
    7.6900    8.0080   15.6650 C   0  0  0  0  0  0  0  0  0  0  0  0
    6.9000    7.0760   16.4850 C   0  0  2  0  0  0  0  0  0  0  0  0
    5.5080    6.8080   15.8780 C   0  0  0  0  0  0  0  0  0  0  0  0
    4.5920    8.0000   16.1310 C   0  0  0  0  0  0  0  0  0  0  0  0
    6.5270    7.6180   17.8590 C   0  0  0  0  0  0  0  0  0  0  0  0
    5.2540    8.8190   17.5220 S   0  0  0  0  0  0  0  0  0  0  0  0
    5.8560   10.0620   17.1290 O   0  0  0  0  0  0  0  0  0  0  0  0
    4.2930    8.8500   18.5910 O   0  0  0  0  0  0  0  0  0  0  0  0
  8  7  2  0
  9  7  2  0
  7  5  1  0
  5  4  1  0
  4  3  1  0
  6  3  1  0
  7  6  1  0
  3  2  1  6
  2  1  3  0
M  END
>  <id>  (239) 
6027

>  <inchikey>  (239) 
CHNZCZASRHSRAC-YFKPBYRVSA-N

>  <alias>  (239) 
c1182b

>  <smiles>  (239) 
N#C[C@@H]1CCS(=O)(=O)C1

>  <path>  (239) 
/opt/xchem-fragalysis-2/maxwin/CHIKV_Mac_20240920/aligned_files/c1182b/c1182b_hippo.pdb

>  <compound>  (239) 
CHNZCZASRHSRAC-UHFFFAOYSA-N

>  <target>  (239) 
CHIKV_Mac

>  <tags>  (239) 
['hits', '[Other] Ribose site', '[Other] fragment screen']

>  <reference>  (239) 
None

>  <exports>  (239) 
['/opt/xchem-fragalysis-2/maxwin/CHIKV_HIPPO/web_resources/hit_poses.sdf', '/opt/xchem-fragalysis-2/maxwin/CHIKV_HIPPO/web/web_resources/hit_poses.sdf', '/opt/xchem-fragalysis-2/maxwin/CHIKV_HIPPO/web2/web_resources/hit_poses.sdf']

>  <observation_longname>  (239) 
nan

>  <ConformerSites alias>  (239) 
nan

>  <CanonSites alias>  (239) 
nan

>  <CrystalformSites alias>  (239) 
nan

>  <Quatassemblies alias>  (239) 
nan

>  <Crystalforms alias>  (239) 
nan

$$$$
c1182c
     RDKit          3D

  9  9  0  0  0  0  0  0  0  0999 V2000
    8.1450    8.3560   14.5910 N   0  0  0  0  0  0  0  0  0  0  0  0
    7.6740    7.8040   15.4690 C   0  0  0  0  0  0  0  0  0  0  0  0
    7.1000    7.1140   16.6350 C   0  0  2  0  0  0  0  0  0  0  0  0
    5.7100    6.5270   16.3360 C   0  0  0  0  0  0  0  0  0  0  0  0
    4.7440    7.7030   16.2970 C   0  0  0  0  0  0  0  0  0  0  0  0
    6.8960    8.1060   17.7820 C   0  0  0  0  0  0  0  0  0  0  0  0
    5.2240    8.7200   17.6290 S   0  0  0  0  0  0  0  0  0  0  0  0
    5.2500   10.0960   17.2220 O   0  0  0  0  0  0  0  0  0  0  0  0
    4.4680    8.3970   18.8100 O   0  0  0  0  0  0  0  0  0  0  0  0
  8  7  2  0
  9  7  2  0
  7  5  1  0
  5  4  1  0
  4  3  1  0
  6  3  1  0
  7  6  1  0
  3  2  1  6
  2  1  3  0
M  END
>  <id>  (240) 
6028

>  <inchikey>  (240) 
CHNZCZASRHSRAC-YFKPBYRVSA-N

>  <alias>  (240) 
c1182c

>  <smiles>  (240) 
N#C[C@@H]1CCS(=O)(=O)C1

>  <path>  (240) 
/opt/xchem-fragalysis-2/maxwin/CHIKV_Mac_20240920/aligned_files/c1182c/c1182c_hippo.pdb

>  <compound>  (240) 
CHNZCZASRHSRAC-UHFFFAOYSA-N

>  <target>  (240) 
CHIKV_Mac

>  <tags>  (240) 
['hits', '[Other] Ribose site', '[Other] fragment screen']

>  <reference>  (240) 
None

>  <exports>  (240) 
['/opt/xchem-fragalysis-2/maxwin/CHIKV_HIPPO/web_resources/hit_poses.sdf', '/opt/xchem-fragalysis-2/maxwin/CHIKV_HIPPO/web/web_resources/hit_poses.sdf', '/opt/xchem-fragalysis-2/maxwin/CHIKV_HIPPO/web2/web_resources/hit_poses.sdf']

>  <observation_longname>  (240) 
nan

>  <ConformerSites alias>  (240) 
nan

>  <CanonSites alias>  (240) 
nan

>  <CrystalformSites alias>  (240) 
nan

>  <Quatassemblies alias>  (240) 
nan

>  <Crystalforms alias>  (240) 
nan

$$$$
c1183b
     RDKit          3D

 12 13  0  0  0  0  0  0  0  0999 V2000
   16.5480    8.4800    8.9760 O   0  0  0  0  0  0  0  0  0  0  0  0
   15.2000    8.5880    9.4000 C   0  0  0  0  0  0  0  0  0  0  0  0
   15.0830    9.4880   10.6020 C   0  0  0  0  0  0  0  0  0  0  0  0
   15.0130   10.7970   10.5320 N   0  0  0  0  0  0  0  0  0  0  0  0
   14.9800   11.2250   11.8620 C   0  0  0  0  0  0  0  0  0  0  0  0
   15.0230   10.1280   12.7170 C   0  0  0  0  0  0  0  0  0  0  0  0
   15.0850    9.0140   11.8900 N   0  0  0  0  0  0  0  0  0  0  0  0
   15.1360    7.6260   12.3390 C   0  0  0  0  0  0  0  0  0  0  0  0
   15.0240   10.2640   14.0980 C   0  0  0  0  0  0  0  0  0  0  0  0
   14.9870   11.5520   14.6170 C   0  0  0  0  0  0  0  0  0  0  0  0
   14.9400   12.6630   13.7730 C   0  0  0  0  0  0  0  0  0  0  0  0
   14.9340   12.5120   12.3910 C   0  0  0  0  0  0  0  0  0  0  0  0
  8  7  1  0
  7  3  1  0
  3  2  1  0
  2  1  1  0
  4  3  2  0
  5  4  1  0
  5 12  2  0
 12 11  1  0
 11 10  2  0
 10  9  1  0
  9  6  2  0
  7  6  1  0
  6  5  1  0
M  END
>  <id>  (241) 
6029

>  <inchikey>  (241) 
SQRSIOZFPSFABI-UHFFFAOYSA-N

>  <alias>  (241) 
c1183b

>  <smiles>  (241) 
Cn1c(CO)nc2ccccc21

>  <path>  (241) 
/opt/xchem-fragalysis-2/maxwin/CHIKV_Mac_20240920/aligned_files/c1183b/c1183b.pdb

>  <compound>  (241) 
SQRSIOZFPSFABI-UHFFFAOYSA-N

>  <target>  (241) 
CHIKV_Mac

>  <tags>  (241) 
['[Other] Adenine site', 'hits', '[Other] fragment screen']

>  <reference>  (241) 
None

>  <exports>  (241) 
['/opt/xchem-fragalysis-2/maxwin/CHIKV_HIPPO/web_resources/hit_poses.sdf', '/opt/xchem-fragalysis-2/maxwin/CHIKV_HIPPO/web/web_resources/hit_poses.sdf', '/opt/xchem-fragalysis-2/maxwin/CHIKV_HIPPO/web2/web_resources/hit_poses.sdf']

>  <observation_longname>  (241) 
nan

>  <ConformerSites alias>  (241) 
nan

>  <CanonSites alias>  (241) 
nan

>  <CrystalformSites alias>  (241) 
nan

>  <Quatassemblies alias>  (241) 
nan

>  <Crystalforms alias>  (241) 
nan

$$$$
c1183a
     RDKit          3D

 12 13  0  0  0  0  0  0  0  0999 V2000
   16.8430   -2.7280   18.7320 O   0  0  0  0  0  0  0  0  0  0  0  0
   18.1300   -2.3680   18.2760 C   0  0  0  0  0  0  0  0  0  0  0  0
   18.1340   -1.1430   17.3890 C   0  0  0  0  0  0  0  0  0  0  0  0
   19.1250   -0.8280   16.5840 N   0  0  0  0  0  0  0  0  0  0  0  0
   18.7260    0.3620   15.9720 C   0  0  0  0  0  0  0  0  0  0  0  0
   17.4690    0.7390   16.4310 C   0  0  0  0  0  0  0  0  0  0  0  0
   17.1020   -0.2390   17.3530 N   0  0  0  0  0  0  0  0  0  0  0  0
   15.8650   -0.2510   18.1290 C   0  0  0  0  0  0  0  0  0  0  0  0
   16.8270    1.8830   15.9810 C   0  0  0  0  0  0  0  0  0  0  0  0
   17.4900    2.6660   15.0460 C   0  0  0  0  0  0  0  0  0  0  0  0
   18.7570    2.3110   14.5840 C   0  0  0  0  0  0  0  0  0  0  0  0
   19.3860    1.1590   15.0380 C   0  0  0  0  0  0  0  0  0  0  0  0
  8  7  1  0
  7  3  1  0
  3  2  1  0
  2  1  1  0
  4  3  2  0
  5  4  1  0
  5 12  2  0
 12 11  1  0
 11 10  2  0
 10  9  1  0
  9  6  2  0
  7  6  1  0
  6  5  1  0
M  END
>  <id>  (242) 
6030

>  <inchikey>  (242) 
SQRSIOZFPSFABI-UHFFFAOYSA-N

>  <alias>  (242) 
c1183a

>  <smiles>  (242) 
Cn1c(CO)nc2ccccc21

>  <path>  (242) 
/opt/xchem-fragalysis-2/maxwin/CHIKV_Mac_20240920/aligned_files/c1183a/c1183a.pdb

>  <compound>  (242) 
SQRSIOZFPSFABI-UHFFFAOYSA-N

>  <target>  (242) 
CHIKV_Mac

>  <tags>  (242) 
['hits', '[Other] Trp148 site', '[Other] fragment screen']

>  <reference>  (242) 
None

>  <exports>  (242) 
['/opt/xchem-fragalysis-2/maxwin/CHIKV_HIPPO/web_resources/hit_poses.sdf', '/opt/xchem-fragalysis-2/maxwin/CHIKV_HIPPO/web/web_resources/hit_poses.sdf', '/opt/xchem-fragalysis-2/maxwin/CHIKV_HIPPO/web2/web_resources/hit_poses.sdf']

>  <observation_longname>  (242) 
nan

>  <ConformerSites alias>  (242) 
nan

>  <CanonSites alias>  (242) 
nan

>  <CrystalformSites alias>  (242) 
nan

>  <Quatassemblies alias>  (242) 
nan

>  <Crystalforms alias>  (242) 
nan

$$$$
c1185a
     RDKit          3D

 15 16  0  0  0  0  0  0  0  0999 V2000
   14.7340    0.5590   15.8050 O   0  0  0  0  0  0  0  0  0  0  0  0
   15.8110    0.4990   16.3680 C   0  0  0  0  0  0  0  0  0  0  0  0
   15.9580   -0.4320   17.5390 C   0  0  0  0  0  0  0  0  0  0  0  0
   15.0440   -0.3280   18.5910 C   0  0  0  0  0  0  0  0  0  0  0  0
   15.0360   -1.2640   19.6150 C   0  0  0  0  0  0  0  0  0  0  0  0
   15.9380   -2.3040   19.6130 C   0  0  0  0  0  0  0  0  0  0  0  0
   16.8660   -2.4220   18.5940 C   0  0  0  0  0  0  0  0  0  0  0  0
   16.8550   -1.4870   17.5870 C   0  0  0  0  0  0  0  0  0  0  0  0
   17.7540   -1.6200   16.5930 F   0  0  0  0  0  0  0  0  0  0  0  0
   16.8730    1.2400   15.9710 N   0  0  0  0  0  0  0  0  0  0  0  0
   18.2090    1.2850   16.5860 C   0  0  0  0  0  0  0  0  0  0  0  0
   18.6360    2.7110   16.8410 C   0  0  0  0  0  0  0  0  0  0  0  0
   18.5080    3.5090   15.6190 N   0  0  0  0  0  0  0  0  0  0  0  0
   17.1260    3.5030   15.1660 C   0  0  0  0  0  0  0  0  0  0  0  0
   16.7600    2.0940   14.7850 C   0  0  0  0  0  0  0  0  0  0  0  0
  9  8  1  0
  8  7  1  0
  7  6  2  0
  6  5  1  0
  5  4  2  0
  4  3  1  0
  8  3  2  0
  3  2  1  0
  2  1  2  0
 10  2  1  0
 10 15  1  0
 15 14  1  0
 14 13  1  0
 13 12  1  0
 12 11  1  0
 11 10  1  0
M  END
>  <id>  (243) 
6031

>  <inchikey>  (243) 
YUOYYPWFXYRVHK-UHFFFAOYSA-N

>  <alias>  (243) 
c1185a

>  <smiles>  (243) 
O=C(c1ccccc1F)N1CCNCC1

>  <path>  (243) 
/opt/xchem-fragalysis-2/maxwin/CHIKV_Mac_20240920/aligned_files/c1185a/c1185a_hippo.pdb

>  <compound>  (243) 
YUOYYPWFXYRVHK-UHFFFAOYSA-N

>  <target>  (243) 
CHIKV_Mac

>  <tags>  (243) 
['hits', '[Other] Trp148 site', '[Other] fragment screen']

>  <reference>  (243) 
None

>  <exports>  (243) 
['/opt/xchem-fragalysis-2/maxwin/CHIKV_HIPPO/web_resources/hit_poses.sdf', '/opt/xchem-fragalysis-2/maxwin/CHIKV_HIPPO/web/web_resources/hit_poses.sdf', '/opt/xchem-fragalysis-2/maxwin/CHIKV_HIPPO/web2/web_resources/hit_poses.sdf']

>  <observation_longname>  (243) 
nan

>  <ConformerSites alias>  (243) 
nan

>  <CanonSites alias>  (243) 
nan

>  <CrystalformSites alias>  (243) 
nan

>  <Quatassemblies alias>  (243) 
nan

>  <Crystalforms alias>  (243) 
nan

$$$$
c1185b
     RDKit          3D

 15 16  0  0  0  0  0  0  0  0999 V2000
   14.7910    0.7560   16.0070 O   0  0  0  0  0  0  0  0  0  0  0  0
   15.7910    0.7000   16.7050 C   0  0  0  0  0  0  0  0  0  0  0  0
   15.8870   -0.3780   17.7510 C   0  0  0  0  0  0  0  0  0  0  0  0
   14.9140   -0.4470   18.7480 C   0  0  0  0  0  0  0  0  0  0  0  0
   14.9090   -1.4890   19.6620 C   0  0  0  0  0  0  0  0  0  0  0  0
   15.8730   -2.4710   19.6040 C   0  0  0  0  0  0  0  0  0  0  0  0
   16.8590   -2.4230   18.6340 C   0  0  0  0  0  0  0  0  0  0  0  0
   16.8430   -1.3820   17.7340 C   0  0  0  0  0  0  0  0  0  0  0  0
   17.8030   -1.3460   16.7890 F   0  0  0  0  0  0  0  0  0  0  0  0
   16.7950    1.6030   16.6020 N   0  0  0  0  0  0  0  0  0  0  0  0
   17.9680    1.6830   17.4830 C   0  0  0  0  0  0  0  0  0  0  0  0
   19.2340    1.6220   16.6710 C   0  0  0  0  0  0  0  0  0  0  0  0
   19.2540    2.7260   15.7110 N   0  0  0  0  0  0  0  0  0  0  0  0
   18.1060    2.6310   14.8050 C   0  0  0  0  0  0  0  0  0  0  0  0
   16.8050    2.6510   15.5740 C   0  0  0  0  0  0  0  0  0  0  0  0
  9  8  1  0
  8  7  1  0
  7  6  2  0
  6  5  1  0
  5  4  2  0
  4  3  1  0
  8  3  2  0
  3  2  1  0
  2  1  2  0
 10  2  1  0
 10 15  1  0
 15 14  1  0
 14 13  1  0
 13 12  1  0
 12 11  1  0
 11 10  1  0
M  END
>  <id>  (244) 
6032

>  <inchikey>  (244) 
YUOYYPWFXYRVHK-UHFFFAOYSA-N

>  <alias>  (244) 
c1185b

>  <smiles>  (244) 
O=C(c1ccccc1F)N1CCNCC1

>  <path>  (244) 
/opt/xchem-fragalysis-2/maxwin/CHIKV_Mac_20240920/aligned_files/c1185b/c1185b_hippo.pdb

>  <compound>  (244) 
YUOYYPWFXYRVHK-UHFFFAOYSA-N

>  <target>  (244) 
CHIKV_Mac

>  <tags>  (244) 
['hits', '[Other] Trp148 site', '[Other] fragment screen']

>  <reference>  (244) 
None

>  <exports>  (244) 
['/opt/xchem-fragalysis-2/maxwin/CHIKV_HIPPO/web_resources/hit_poses.sdf', '/opt/xchem-fragalysis-2/maxwin/CHIKV_HIPPO/web/web_resources/hit_poses.sdf', '/opt/xchem-fragalysis-2/maxwin/CHIKV_HIPPO/web2/web_resources/hit_poses.sdf']

>  <observation_longname>  (244) 
nan

>  <ConformerSites alias>  (244) 
nan

>  <CanonSites alias>  (244) 
nan

>  <CrystalformSites alias>  (244) 
nan

>  <Quatassemblies alias>  (244) 
nan

>  <Crystalforms alias>  (244) 
nan

$$$$
c1185c
     RDKit          3D

 15 16  0  0  0  0  0  0  0  0999 V2000
   14.9730    0.5430   15.5940 O   0  0  0  0  0  0  0  0  0  0  0  0
   15.9800    0.5830   16.2830 C   0  0  0  0  0  0  0  0  0  0  0  0
   16.1800   -0.4630   17.3340 C   0  0  0  0  0  0  0  0  0  0  0  0
   17.1450   -1.4710   17.2420 C   0  0  0  0  0  0  0  0  0  0  0  0
   17.2130   -2.4600   18.2060 C   0  0  0  0  0  0  0  0  0  0  0  0
   16.3230   -2.4660   19.2580 C   0  0  0  0  0  0  0  0  0  0  0  0
   15.3780   -1.4640   19.3840 C   0  0  0  0  0  0  0  0  0  0  0  0
   15.3380   -0.4780   18.4310 C   0  0  0  0  0  0  0  0  0  0  0  0
   14.4680    0.5540   18.5900 F   0  0  0  0  0  0  0  0  0  0  0  0
   16.8280    1.6290   16.2700 N   0  0  0  0  0  0  0  0  0  0  0  0
   17.8590    1.7940   17.3040 C   0  0  0  0  0  0  0  0  0  0  0  0
   19.1930    2.1360   16.7030 C   0  0  0  0  0  0  0  0  0  0  0  0
   19.0390    3.3250   15.8940 N   0  0  0  0  0  0  0  0  0  0  0  0
   18.1300    3.0570   14.7840 C   0  0  0  0  0  0  0  0  0  0  0  0
   16.7550    2.7340   15.3060 C   0  0  0  0  0  0  0  0  0  0  0  0
  9  8  1  0
  8  7  1  0
  7  6  2  0
  6  5  1  0
  5  4  2  0
  4  3  1  0
  8  3  2  0
  3  2  1  0
  2  1  2  0
 10  2  1  0
 10 15  1  0
 15 14  1  0
 14 13  1  0
 13 12  1  0
 12 11  1  0
 11 10  1  0
M  END
>  <id>  (245) 
6033

>  <inchikey>  (245) 
YUOYYPWFXYRVHK-UHFFFAOYSA-N

>  <alias>  (245) 
c1185c

>  <smiles>  (245) 
O=C(c1ccccc1F)N1CCNCC1

>  <path>  (245) 
/opt/xchem-fragalysis-2/maxwin/CHIKV_Mac_20240920/aligned_files/c1185c/c1185c_hippo.pdb

>  <compound>  (245) 
YUOYYPWFXYRVHK-UHFFFAOYSA-N

>  <target>  (245) 
CHIKV_Mac

>  <tags>  (245) 
['hits', '[Other] Trp148 site', '[Other] fragment screen']

>  <reference>  (245) 
None

>  <exports>  (245) 
['/opt/xchem-fragalysis-2/maxwin/CHIKV_HIPPO/web_resources/hit_poses.sdf', '/opt/xchem-fragalysis-2/maxwin/CHIKV_HIPPO/web/web_resources/hit_poses.sdf', '/opt/xchem-fragalysis-2/maxwin/CHIKV_HIPPO/web2/web_resources/hit_poses.sdf']

>  <observation_longname>  (245) 
nan

>  <ConformerSites alias>  (245) 
nan

>  <CanonSites alias>  (245) 
nan

>  <CrystalformSites alias>  (245) 
nan

>  <Quatassemblies alias>  (245) 
nan

>  <Crystalforms alias>  (245) 
nan

$$$$
c1185d
     RDKit          3D

 15 16  0  0  0  0  0  0  0  0999 V2000
   14.6960    0.8030   16.0360 O   0  0  0  0  0  0  0  0  0  0  0  0
   15.7170    0.7530   16.6890 C   0  0  0  0  0  0  0  0  0  0  0  0
   15.8970   -0.3680   17.6740 C   0  0  0  0  0  0  0  0  0  0  0  0
   14.9180   -0.5470   18.6540 C   0  0  0  0  0  0  0  0  0  0  0  0
   15.0390   -1.5530   19.5950 C   0  0  0  0  0  0  0  0  0  0  0  0
   16.1070   -2.4160   19.5560 C   0  0  0  0  0  0  0  0  0  0  0  0
   17.0910   -2.2680   18.5970 C   0  0  0  0  0  0  0  0  0  0  0  0
   16.9740   -1.2430   17.6900 C   0  0  0  0  0  0  0  0  0  0  0  0
   17.9730   -1.0670   16.7990 F   0  0  0  0  0  0  0  0  0  0  0  0
   16.6460    1.7330   16.6450 N   0  0  0  0  0  0  0  0  0  0  0  0
   17.7310    1.8880   17.6230 C   0  0  0  0  0  0  0  0  0  0  0  0
   19.0780    1.8830   16.9470 C   0  0  0  0  0  0  0  0  0  0  0  0
   19.1170    2.9670   15.9900 N   0  0  0  0  0  0  0  0  0  0  0  0
   18.0720    2.7630   14.9640 C   0  0  0  0  0  0  0  0  0  0  0  0
   16.6920    2.7450   15.5850 C   0  0  0  0  0  0  0  0  0  0  0  0
  9  8  1  0
  8  7  1  0
  7  6  2  0
  6  5  1  0
  5  4  2  0
  4  3  1  0
  8  3  2  0
  3  2  1  0
  2  1  2  0
 10  2  1  0
 10 15  1  0
 15 14  1  0
 14 13  1  0
 13 12  1  0
 12 11  1  0
 11 10  1  0
M  END
>  <id>  (246) 
6034

>  <inchikey>  (246) 
YUOYYPWFXYRVHK-UHFFFAOYSA-N

>  <alias>  (246) 
c1185d

>  <smiles>  (246) 
O=C(c1ccccc1F)N1CCNCC1

>  <path>  (246) 
/opt/xchem-fragalysis-2/maxwin/CHIKV_Mac_20240920/aligned_files/c1185d/c1185d_hippo.pdb

>  <compound>  (246) 
YUOYYPWFXYRVHK-UHFFFAOYSA-N

>  <target>  (246) 
CHIKV_Mac

>  <tags>  (246) 
['hits', '[Other] Trp148 site', '[Other] fragment screen']

>  <reference>  (246) 
None

>  <exports>  (246) 
['/opt/xchem-fragalysis-2/maxwin/CHIKV_HIPPO/web_resources/hit_poses.sdf', '/opt/xchem-fragalysis-2/maxwin/CHIKV_HIPPO/web/web_resources/hit_poses.sdf', '/opt/xchem-fragalysis-2/maxwin/CHIKV_HIPPO/web2/web_resources/hit_poses.sdf']

>  <observation_longname>  (246) 
nan

>  <ConformerSites alias>  (246) 
nan

>  <CanonSites alias>  (246) 
nan

>  <CrystalformSites alias>  (246) 
nan

>  <Quatassemblies alias>  (246) 
nan

>  <Crystalforms alias>  (246) 
nan

$$$$
c1188a
     RDKit          3D

 15 16  0  0  0  0  0  0  0  0999 V2000
   17.1090   -3.9280   19.7340 Cl  0  0  0  0  0  0  0  0  0  0  0  0
   17.0760   -2.5310   18.6960 C   0  0  0  0  0  0  0  0  0  0  0  0
   16.0420   -1.6280   18.8130 C   0  0  0  0  0  0  0  0  0  0  0  0
   16.0170   -0.5200   17.9850 C   0  0  0  0  0  0  0  0  0  0  0  0
   18.0860   -2.3510   17.7740 C   0  0  0  0  0  0  0  0  0  0  0  0
   18.0590   -1.2450   16.9460 C   0  0  0  0  0  0  0  0  0  0  0  0
   17.0210   -0.3250   17.0400 C   0  0  0  0  0  0  0  0  0  0  0  0
   16.9720    0.8030   16.1560 N   0  0  0  0  0  0  0  0  0  0  0  0
   15.8220    1.2990   15.5510 C   0  0  0  0  0  0  0  0  0  0  0  0
   14.6910    0.8380   15.6720 O   0  0  0  0  0  0  0  0  0  0  0  0
   16.2130    2.3570   14.7580 N   0  0  0  0  0  0  0  0  0  0  0  0
   17.5760    2.5320   14.7440 C   0  0  0  0  0  0  0  0  0  0  0  0
   18.1780    3.3830   14.0990 O   0  0  0  0  0  0  0  0  0  0  0  0
   18.1750    1.4530   15.6230 C   0  0  1  0  0  0  0  0  0  0  0  0
   19.0930    2.0200   16.6960 C   0  0  0  0  0  0  0  0  0  0  0  0
 14 15  1  1
 14  8  1  0
  9  8  1  0
 10  9  2  0
 11  9  1  0
 12 11  1  0
 14 12  1  0
 13 12  2  0
  8  7  1  0
  7  4  2  0
  4  3  1  0
  3  2  2  0
  2  1  1  0
  5  2  1  0
  6  5  2  0
  7  6  1  0
M  END
>  <id>  (247) 
6035

>  <inchikey>  (247) 
YRTFBBSKIRZNAW-ZCFIWIBFSA-N

>  <alias>  (247) 
c1188a

>  <smiles>  (247) 
C[C@@H]1C(=O)NC(=O)N1c1ccc(Cl)cc1

>  <path>  (247) 
/opt/xchem-fragalysis-2/maxwin/CHIKV_Mac_20240920/aligned_files/c1188a/c1188a.pdb

>  <compound>  (247) 
YRTFBBSKIRZNAW-UHFFFAOYSA-N

>  <target>  (247) 
CHIKV_Mac

>  <tags>  (247) 
['hits', '[Other] Trp148 site', '[Other] fragment screen']

>  <reference>  (247) 
None

>  <exports>  (247) 
['/opt/xchem-fragalysis-2/maxwin/CHIKV_HIPPO/web_resources/hit_poses.sdf', '/opt/xchem-fragalysis-2/maxwin/CHIKV_HIPPO/web/web_resources/hit_poses.sdf', '/opt/xchem-fragalysis-2/maxwin/CHIKV_HIPPO/web2/web_resources/hit_poses.sdf']

>  <observation_longname>  (247) 
nan

>  <ConformerSites alias>  (247) 
nan

>  <CanonSites alias>  (247) 
nan

>  <CrystalformSites alias>  (247) 
nan

>  <Quatassemblies alias>  (247) 
nan

>  <Crystalforms alias>  (247) 
nan

$$$$
c1194a
     RDKit          3D

 13 14  0  0  0  0  0  0  0  0999 V2000
   14.3250   12.9230   11.4370 O   0  0  0  0  0  0  0  0  0  0  0  0
   14.5200   11.7120   11.4180 C   0  0  0  0  0  0  0  0  0  0  0  0
   14.5700   10.9710   10.2840 N   0  0  0  0  0  0  0  0  0  0  0  0
   14.7720    9.6170   10.6570 N   0  0  0  0  0  0  0  0  0  0  0  0
   14.5540    8.5080    9.7330 C   0  0  0  0  0  0  0  0  0  0  0  0
   14.8380    9.4990   12.0070 C   0  0  0  0  0  0  0  0  0  0  0  0
   14.7030   10.7810   12.5460 C   0  0  0  0  0  0  0  0  0  0  0  0
   14.7780   10.8800   13.9440 C   0  0  0  0  0  0  0  0  0  0  0  0
   14.7180   12.2050   14.6620 C   0  0  0  0  0  0  0  0  0  0  0  0
   14.9600    9.7070   14.6680 C   0  0  0  0  0  0  0  0  0  0  0  0
   15.0090    8.3570   12.6890 N   0  0  0  0  0  0  0  0  0  0  0  0
   15.0760    8.4730   14.0310 C   0  0  0  0  0  0  0  0  0  0  0  0
   15.3350    7.2130   14.7980 C   0  0  0  0  0  0  0  0  0  0  0  0
 13 12  1  0
 12 10  2  0
 10  8  1  0
  9  8  1  0
  8  7  2  0
  7  2  1  0
  2  1  2  0
  3  2  1  0
  4  3  1  0
  5  4  1  0
  6  4  1  0
  7  6  1  0
 11  6  2  0
 12 11  1  0
M  END
>  <id>  (248) 
6036

>  <inchikey>  (248) 
XQCLUVVQJMLNAW-UHFFFAOYSA-N

>  <alias>  (248) 
c1194a

>  <smiles>  (248) 
Cc1cc(C)c2c(=O)[nH]n(C)c2n1

>  <path>  (248) 
/opt/xchem-fragalysis-2/maxwin/CHIKV_Mac_20240920/aligned_files/c1194a/c1194a_hippo.pdb

>  <compound>  (248) 
XQCLUVVQJMLNAW-UHFFFAOYSA-N

>  <target>  (248) 
CHIKV_Mac

>  <tags>  (248) 
['[Other] Adenine site', 'hits', '[Other] fragment screen']

>  <reference>  (248) 
None

>  <exports>  (248) 
['/opt/xchem-fragalysis-2/maxwin/CHIKV_HIPPO/web_resources/hit_poses.sdf', '/opt/xchem-fragalysis-2/maxwin/CHIKV_HIPPO/web/web_resources/hit_poses.sdf', '/opt/xchem-fragalysis-2/maxwin/CHIKV_HIPPO/web2/web_resources/hit_poses.sdf']

>  <observation_longname>  (248) 
nan

>  <ConformerSites alias>  (248) 
nan

>  <CanonSites alias>  (248) 
nan

>  <CrystalformSites alias>  (248) 
nan

>  <Quatassemblies alias>  (248) 
nan

>  <Crystalforms alias>  (248) 
nan

$$$$
c1194b
     RDKit          3D

 13 14  0  0  0  0  0  0  0  0999 V2000
   14.4940   13.0240   11.1110 O   0  0  0  0  0  0  0  0  0  0  0  0
   14.6960   11.8170   11.1830 C   0  0  0  0  0  0  0  0  0  0  0  0
   14.8720   11.0120   10.1080 N   0  0  0  0  0  0  0  0  0  0  0  0
   14.9980    9.6790   10.5610 N   0  0  0  0  0  0  0  0  0  0  0  0
   14.5670    8.5830    9.7040 C   0  0  0  0  0  0  0  0  0  0  0  0
   14.9210    9.6380   11.9180 C   0  0  0  0  0  0  0  0  0  0  0  0
   14.7380   10.9450   12.3760 C   0  0  0  0  0  0  0  0  0  0  0  0
   14.7700   11.1260   13.7670 C   0  0  0  0  0  0  0  0  0  0  0  0
   14.6470   12.4850   14.4060 C   0  0  0  0  0  0  0  0  0  0  0  0
   14.9490   10.0010   14.5650 C   0  0  0  0  0  0  0  0  0  0  0  0
   15.0790    8.5410   12.6710 N   0  0  0  0  0  0  0  0  0  0  0  0
   15.0970    8.7340   14.0050 C   0  0  0  0  0  0  0  0  0  0  0  0
   15.3000    7.5180   14.8530 C   0  0  0  0  0  0  0  0  0  0  0  0
 13 12  1  0
 12 10  2  0
 10  8  1  0
  9  8  1  0
  8  7  2  0
  7  2  1  0
  2  1  2  0
  3  2  1  0
  4  3  1  0
  5  4  1  0
  6  4  1  0
  7  6  1  0
 11  6  2  0
 12 11  1  0
M  END
>  <id>  (249) 
6037

>  <inchikey>  (249) 
XQCLUVVQJMLNAW-UHFFFAOYSA-N

>  <alias>  (249) 
c1194b

>  <smiles>  (249) 
Cc1cc(C)c2c(=O)[nH]n(C)c2n1

>  <path>  (249) 
/opt/xchem-fragalysis-2/maxwin/CHIKV_Mac_20240920/aligned_files/c1194b/c1194b_hippo.pdb

>  <compound>  (249) 
XQCLUVVQJMLNAW-UHFFFAOYSA-N

>  <target>  (249) 
CHIKV_Mac

>  <tags>  (249) 
['[Other] Adenine site', 'hits', '[Other] fragment screen']

>  <reference>  (249) 
None

>  <exports>  (249) 
['/opt/xchem-fragalysis-2/maxwin/CHIKV_HIPPO/web_resources/hit_poses.sdf', '/opt/xchem-fragalysis-2/maxwin/CHIKV_HIPPO/web/web_resources/hit_poses.sdf', '/opt/xchem-fragalysis-2/maxwin/CHIKV_HIPPO/web2/web_resources/hit_poses.sdf']

>  <observation_longname>  (249) 
nan

>  <ConformerSites alias>  (249) 
nan

>  <CanonSites alias>  (249) 
nan

>  <CrystalformSites alias>  (249) 
nan

>  <Quatassemblies alias>  (249) 
nan

>  <Crystalforms alias>  (249) 
nan

$$$$
c1298a
     RDKit          3D

 14 15  0  0  0  0  0  0  0  0999 V2000
   14.9180    9.1440   10.2110 O   0  0  0  0  0  0  0  0  0  0  0  0
   14.9000    9.6080   11.3480 C   0  0  0  0  0  0  0  0  0  0  0  0
   14.6320   10.9710   11.5630 N   0  0  0  0  0  0  0  0  0  0  0  0
   14.4160   11.8030   10.3780 C   0  0  0  0  0  0  0  0  0  0  0  0
   14.5750   11.6100   12.8040 C   0  0  0  0  0  0  0  0  0  0  0  0
   14.2790   12.7870   12.8960 O   0  0  0  0  0  0  0  0  0  0  0  0
   14.8400   10.8400   13.9300 N   0  0  0  0  0  0  0  0  0  0  0  0
   14.9650   11.5160   15.2260 C   0  0  0  0  0  0  0  0  0  0  0  0
   15.1290    8.8960   12.5710 C   0  0  0  0  0  0  0  0  0  0  0  0
   15.4690    7.5820   12.8180 N   0  0  0  0  0  0  0  0  0  0  0  0
   15.6730    6.5180   11.8390 C   0  0  0  0  0  0  0  0  0  0  0  0
   15.0970    9.4950   13.7920 C   0  0  0  0  0  0  0  0  0  0  0  0
   15.3950    8.6160   14.7900 N   0  0  0  0  0  0  0  0  0  0  0  0
   15.6130    7.4820   14.1540 C   0  0  0  0  0  0  0  0  0  0  0  0
 11 10  1  0
 10 14  1  0
 14 13  2  0
 13 12  1  0
 12  7  1  0
  8  7  1  0
  7  5  1  0
  6  5  2  0
  5  3  1  0
  4  3  1  0
  3  2  1  0
  2  1  2  0
  9  2  1  0
 10  9  1  0
 12  9  2  0
M  END
>  <id>  (250) 
6038

>  <inchikey>  (250) 
RYYVLZVUVIJVGH-UHFFFAOYSA-N

>  <alias>  (250) 
c1298a

>  <smiles>  (250) 
Cn1c(=O)c2c(ncn2C)n(C)c1=O

>  <path>  (250) 
/opt/xchem-fragalysis-2/maxwin/CHIKV_Mac_20240920/aligned_files/c1298a/c1298a_hippo.pdb

>  <compound>  (250) 
RYYVLZVUVIJVGH-UHFFFAOYSA-N

>  <target>  (250) 
CHIKV_Mac

>  <tags>  (250) 
['[Other] Adenine site', 'hits', '[Other] fragment screen']

>  <reference>  (250) 
None

>  <exports>  (250) 
['/opt/xchem-fragalysis-2/maxwin/CHIKV_HIPPO/web_resources/hit_poses.sdf', '/opt/xchem-fragalysis-2/maxwin/CHIKV_HIPPO/web/web_resources/hit_poses.sdf', '/opt/xchem-fragalysis-2/maxwin/CHIKV_HIPPO/web2/web_resources/hit_poses.sdf']

>  <observation_longname>  (250) 
nan

>  <ConformerSites alias>  (250) 
nan

>  <CanonSites alias>  (250) 
nan

>  <CrystalformSites alias>  (250) 
nan

>  <Quatassemblies alias>  (250) 
nan

>  <Crystalforms alias>  (250) 
nan

$$$$
c1298b
     RDKit          3D

 14 15  0  0  0  0  0  0  0  0999 V2000
   15.4040    7.5010   11.2890 O   0  0  0  0  0  0  0  0  0  0  0  0
   15.2030    8.6040   11.7900 C   0  0  0  0  0  0  0  0  0  0  0  0
   15.0580    9.7490   10.9800 N   0  0  0  0  0  0  0  0  0  0  0  0
   15.2120    9.5620    9.5310 C   0  0  0  0  0  0  0  0  0  0  0  0
   14.8220   11.0540   11.4380 C   0  0  0  0  0  0  0  0  0  0  0  0
   14.6420   11.9770   10.6600 O   0  0  0  0  0  0  0  0  0  0  0  0
   14.7560   11.2460   12.8180 N   0  0  0  0  0  0  0  0  0  0  0  0
   14.5410   12.5980   13.3470 C   0  0  0  0  0  0  0  0  0  0  0  0
   15.1030    8.9070   13.1900 C   0  0  0  0  0  0  0  0  0  0  0  0
   15.2060    8.1100   14.3160 N   0  0  0  0  0  0  0  0  0  0  0  0
   15.4140    6.6650   14.3720 C   0  0  0  0  0  0  0  0  0  0  0  0
   14.8990   10.1710   13.6650 C   0  0  0  0  0  0  0  0  0  0  0  0
   14.8810   10.2010   15.0260 N   0  0  0  0  0  0  0  0  0  0  0  0
   15.0680    8.9430   15.3710 C   0  0  0  0  0  0  0  0  0  0  0  0
 11 10  1  0
 10 14  1  0
 14 13  2  0
 13 12  1  0
 12  7  1  0
  8  7  1  0
  7  5  1  0
  6  5  2  0
  5  3  1  0
  4  3  1  0
  3  2  1  0
  2  1  2  0
  9  2  1  0
 10  9  1  0
 12  9  2  0
M  END
>  <id>  (251) 
6039

>  <inchikey>  (251) 
RYYVLZVUVIJVGH-UHFFFAOYSA-N

>  <alias>  (251) 
c1298b

>  <smiles>  (251) 
Cn1c(=O)c2c(ncn2C)n(C)c1=O

>  <path>  (251) 
/opt/xchem-fragalysis-2/maxwin/CHIKV_Mac_20240920/aligned_files/c1298b/c1298b_hippo.pdb

>  <compound>  (251) 
RYYVLZVUVIJVGH-UHFFFAOYSA-N

>  <target>  (251) 
CHIKV_Mac

>  <tags>  (251) 
['[Other] Adenine site', 'hits', '[Other] fragment screen']

>  <reference>  (251) 
None

>  <exports>  (251) 
['/opt/xchem-fragalysis-2/maxwin/CHIKV_HIPPO/web_resources/hit_poses.sdf', '/opt/xchem-fragalysis-2/maxwin/CHIKV_HIPPO/web/web_resources/hit_poses.sdf', '/opt/xchem-fragalysis-2/maxwin/CHIKV_HIPPO/web2/web_resources/hit_poses.sdf']

>  <observation_longname>  (251) 
nan

>  <ConformerSites alias>  (251) 
nan

>  <CanonSites alias>  (251) 
nan

>  <CrystalformSites alias>  (251) 
nan

>  <Quatassemblies alias>  (251) 
nan

>  <Crystalforms alias>  (251) 
nan

$$$$
c1203a
     RDKit          3D

 11 12  0  0  0  0  0  0  0  0999 V2000
   14.4620   13.4440   12.1030 N   0  0  0  0  0  0  0  0  0  0  0  0
   14.6200   12.1710   11.7340 C   0  0  0  0  0  0  0  0  0  0  0  0
   14.5920   11.7440   10.4900 N   0  0  0  0  0  0  0  0  0  0  0  0
   14.7580   10.3610   10.5710 C   0  0  0  0  0  0  0  0  0  0  0  0
   14.8940    9.9770   11.9020 C   0  0  0  0  0  0  0  0  0  0  0  0
   14.8040   11.1470   12.6370 N   0  0  0  0  0  0  0  0  0  0  0  0
   14.8730   11.2030   14.0950 C   0  0  0  0  0  0  0  0  0  0  0  0
   15.0490    8.6540   12.2830 C   0  0  0  0  0  0  0  0  0  0  0  0
   15.0690    7.6960   11.2800 C   0  0  0  0  0  0  0  0  0  0  0  0
   14.9160    8.0580    9.9440 C   0  0  0  0  0  0  0  0  0  0  0  0
   14.7690    9.3910    9.5730 C   0  0  0  0  0  0  0  0  0  0  0  0
  7  6  1  0
  6  2  1  0
  2  1  1  0
  3  2  2  0
  4  3  1  0
  4 11  2  0
 11 10  1  0
 10  9  2  0
  9  8  1  0
  8  5  2  0
  6  5  1  0
  5  4  1  0
M  END
>  <id>  (252) 
6040

>  <inchikey>  (252) 
XDFZKQJLNGNJAN-UHFFFAOYSA-N

>  <alias>  (252) 
c1203a

>  <smiles>  (252) 
Cn1c(N)nc2ccccc21

>  <path>  (252) 
/opt/xchem-fragalysis-2/maxwin/CHIKV_Mac_20240920/aligned_files/c1203a/c1203a_hippo.pdb

>  <compound>  (252) 
XDFZKQJLNGNJAN-UHFFFAOYSA-N

>  <target>  (252) 
CHIKV_Mac

>  <tags>  (252) 
['[Other] Adenine site', 'hits', '[Other] fragment screen']

>  <reference>  (252) 
None

>  <exports>  (252) 
['/opt/xchem-fragalysis-2/maxwin/CHIKV_HIPPO/web_resources/hit_poses.sdf', '/opt/xchem-fragalysis-2/maxwin/CHIKV_HIPPO/web/web_resources/hit_poses.sdf', '/opt/xchem-fragalysis-2/maxwin/CHIKV_HIPPO/web2/web_resources/hit_poses.sdf']

>  <observation_longname>  (252) 
CHIKV_MacB-x1203_A_304_1_CHIKV_MacB-x2352+C+401+1

>  <ConformerSites alias>  (252) 
1a - c2352/C/401

>  <CanonSites alias>  (252) 
1 - c2352/C/401/1

>  <CrystalformSites alias>  (252) 
F1a - c0270/A/304

>  <Quatassemblies alias>  (252) 
A1 - monomer

>  <Crystalforms alias>  (252) 
F1 - P31-4fold-NCS

$$$$
c1203b
     RDKit          3D

 11 12  0  0  0  0  0  0  0  0999 V2000
    9.8010    6.8500   13.8170 N   0  0  0  0  0  0  0  0  0  0  0  0
   11.0660    6.9600   14.2480 C   0  0  0  0  0  0  0  0  0  0  0  0
   11.5070    7.8920   15.0700 N   0  0  0  0  0  0  0  0  0  0  0  0
   12.8730    7.6270   15.2320 C   0  0  0  0  0  0  0  0  0  0  0  0
   13.2320    6.5140   14.4820 C   0  0  0  0  0  0  0  0  0  0  0  0
   12.0620    6.0890   13.8660 N   0  0  0  0  0  0  0  0  0  0  0  0
   11.9410    4.8960   13.0400 C   0  0  0  0  0  0  0  0  0  0  0  0
   14.5320    6.0310   14.4440 C   0  0  0  0  0  0  0  0  0  0  0  0
   15.4920    6.7030   15.1890 C   0  0  0  0  0  0  0  0  0  0  0  0
   15.1490    7.8120   15.9600 C   0  0  0  0  0  0  0  0  0  0  0  0
   13.8400    8.2830   15.9910 C   0  0  0  0  0  0  0  0  0  0  0  0
  7  6  1  0
  6  2  1  0
  2  1  1  0
  3  2  2  0
  4  3  1  0
  4 11  2  0
 11 10  1  0
 10  9  2  0
  9  8  1  0
  8  5  2  0
  6  5  1  0
  5  4  1  0
M  END
>  <id>  (253) 
6041

>  <inchikey>  (253) 
XDFZKQJLNGNJAN-UHFFFAOYSA-N

>  <alias>  (253) 
c1203b

>  <smiles>  (253) 
Cn1c(N)nc2ccccc21

>  <path>  (253) 
/opt/xchem-fragalysis-2/maxwin/CHIKV_Mac_20240920/aligned_files/c1203b/c1203b_hippo.pdb

>  <compound>  (253) 
XDFZKQJLNGNJAN-UHFFFAOYSA-N

>  <target>  (253) 
CHIKV_Mac

>  <tags>  (253) 
['hits', '[Other] Phosphate site', '[Other] fragment screen']

>  <reference>  (253) 
None

>  <exports>  (253) 
['/opt/xchem-fragalysis-2/maxwin/CHIKV_HIPPO/web_resources/hit_poses.sdf', '/opt/xchem-fragalysis-2/maxwin/CHIKV_HIPPO/web/web_resources/hit_poses.sdf', '/opt/xchem-fragalysis-2/maxwin/CHIKV_HIPPO/web2/web_resources/hit_poses.sdf']

>  <observation_longname>  (253) 
nan

>  <ConformerSites alias>  (253) 
nan

>  <CanonSites alias>  (253) 
nan

>  <CrystalformSites alias>  (253) 
nan

>  <Quatassemblies alias>  (253) 
nan

>  <Crystalforms alias>  (253) 
nan

$$$$
c1203c
     RDKit          3D

 11 12  0  0  0  0  0  0  0  0999 V2000
   16.1180    2.0490   14.8940 N   0  0  0  0  0  0  0  0  0  0  0  0
   16.6050    1.0280   15.6110 C   0  0  0  0  0  0  0  0  0  0  0  0
   15.8760    0.2170   16.3520 N   0  0  0  0  0  0  0  0  0  0  0  0
   16.7810   -0.7010   16.9000 C   0  0  0  0  0  0  0  0  0  0  0  0
   18.0710   -0.4210   16.4550 C   0  0  0  0  0  0  0  0  0  0  0  0
   17.9470    0.7050   15.6410 N   0  0  0  0  0  0  0  0  0  0  0  0
   19.0420    1.4200   14.9860 C   0  0  0  0  0  0  0  0  0  0  0  0
   19.1670   -1.2000   16.8150 C   0  0  0  0  0  0  0  0  0  0  0  0
   18.9350   -2.2810   17.6610 C   0  0  0  0  0  0  0  0  0  0  0  0
   17.6510   -2.5620   18.1330 C   0  0  0  0  0  0  0  0  0  0  0  0
   16.5650   -1.7760   17.7600 C   0  0  0  0  0  0  0  0  0  0  0  0
  7  6  1  0
  6  2  1  0
  2  1  1  0
  3  2  2  0
  4  3  1  0
  4 11  2  0
 11 10  1  0
 10  9  2  0
  9  8  1  0
  8  5  2  0
  6  5  1  0
  5  4  1  0
M  END
>  <id>  (254) 
6042

>  <inchikey>  (254) 
XDFZKQJLNGNJAN-UHFFFAOYSA-N

>  <alias>  (254) 
c1203c

>  <smiles>  (254) 
Cn1c(N)nc2ccccc21

>  <path>  (254) 
/opt/xchem-fragalysis-2/maxwin/CHIKV_Mac_20240920/aligned_files/c1203c/c1203c_hippo.pdb

>  <compound>  (254) 
XDFZKQJLNGNJAN-UHFFFAOYSA-N

>  <target>  (254) 
CHIKV_Mac

>  <tags>  (254) 
['hits', '[Other] Trp148 site', '[Other] fragment screen']

>  <reference>  (254) 
None

>  <exports>  (254) 
['/opt/xchem-fragalysis-2/maxwin/CHIKV_HIPPO/web_resources/hit_poses.sdf', '/opt/xchem-fragalysis-2/maxwin/CHIKV_HIPPO/web/web_resources/hit_poses.sdf', '/opt/xchem-fragalysis-2/maxwin/CHIKV_HIPPO/web2/web_resources/hit_poses.sdf']

>  <observation_longname>  (254) 
nan

>  <ConformerSites alias>  (254) 
nan

>  <CanonSites alias>  (254) 
nan

>  <CrystalformSites alias>  (254) 
nan

>  <Quatassemblies alias>  (254) 
nan

>  <Crystalforms alias>  (254) 
nan

$$$$
c1203d
     RDKit          3D

 11 12  0  0  0  0  0  0  0  0999 V2000
   16.4160    2.1560   15.0970 N   0  0  0  0  0  0  0  0  0  0  0  0
   16.7900    1.0380   15.7320 C   0  0  0  0  0  0  0  0  0  0  0  0
   15.9870    0.2830   16.4520 N   0  0  0  0  0  0  0  0  0  0  0  0
   16.7920   -0.7410   16.9580 C   0  0  0  0  0  0  0  0  0  0  0  0
   18.0990   -0.5900   16.5010 C   0  0  0  0  0  0  0  0  0  0  0  0
   18.0870    0.5650   15.7160 N   0  0  0  0  0  0  0  0  0  0  0  0
   19.2390    1.1600   15.0420 C   0  0  0  0  0  0  0  0  0  0  0  0
   19.1110   -1.4700   16.8540 C   0  0  0  0  0  0  0  0  0  0  0  0
   18.7850   -2.5180   17.7090 C   0  0  0  0  0  0  0  0  0  0  0  0
   17.4830   -2.6740   18.1900 C   0  0  0  0  0  0  0  0  0  0  0  0
   16.4770   -1.7920   17.8180 C   0  0  0  0  0  0  0  0  0  0  0  0
  7  6  1  0
  6  2  1  0
  2  1  1  0
  3  2  2  0
  4  3  1  0
  4 11  2  0
 11 10  1  0
 10  9  2  0
  9  8  1  0
  8  5  2  0
  6  5  1  0
  5  4  1  0
M  END
>  <id>  (255) 
6043

>  <inchikey>  (255) 
XDFZKQJLNGNJAN-UHFFFAOYSA-N

>  <alias>  (255) 
c1203d

>  <smiles>  (255) 
Cn1c(N)nc2ccccc21

>  <path>  (255) 
/opt/xchem-fragalysis-2/maxwin/CHIKV_Mac_20240920/aligned_files/c1203d/c1203d_hippo.pdb

>  <compound>  (255) 
XDFZKQJLNGNJAN-UHFFFAOYSA-N

>  <target>  (255) 
CHIKV_Mac

>  <tags>  (255) 
['hits', '[Other] Trp148 site', '[Other] fragment screen']

>  <reference>  (255) 
None

>  <exports>  (255) 
['/opt/xchem-fragalysis-2/maxwin/CHIKV_HIPPO/web_resources/hit_poses.sdf', '/opt/xchem-fragalysis-2/maxwin/CHIKV_HIPPO/web/web_resources/hit_poses.sdf', '/opt/xchem-fragalysis-2/maxwin/CHIKV_HIPPO/web2/web_resources/hit_poses.sdf']

>  <observation_longname>  (255) 
CHIKV_MacB-x1203_B_308_1_CHIKV_MacB-x2352+C+401+1

>  <ConformerSites alias>  (255) 
1a - c2352/C/401

>  <CanonSites alias>  (255) 
1 - c2352/C/401/1

>  <CrystalformSites alias>  (255) 
F1a - c0270/A/304

>  <Quatassemblies alias>  (255) 
A1 - monomer

>  <Crystalforms alias>  (255) 
F1 - P31-4fold-NCS

$$$$
c1203g
     RDKit          3D

 11 12  0  0  0  0  0  0  0  0999 V2000
   16.1820    2.3440   14.9160 N   0  0  0  0  0  0  0  0  0  0  0  0
   16.6000    1.2830   15.6080 C   0  0  0  0  0  0  0  0  0  0  0  0
   15.8160    0.4930   16.3150 N   0  0  0  0  0  0  0  0  0  0  0  0
   16.6590   -0.4800   16.8550 C   0  0  0  0  0  0  0  0  0  0  0  0
   17.9690   -0.2560   16.4440 C   0  0  0  0  0  0  0  0  0  0  0  0
   17.9200    0.8870   15.6500 N   0  0  0  0  0  0  0  0  0  0  0  0
   19.0720    1.5410   15.0420 C   0  0  0  0  0  0  0  0  0  0  0  0
   19.0150   -1.0890   16.8160 C   0  0  0  0  0  0  0  0  0  0  0  0
   18.7150   -2.1700   17.6290 C   0  0  0  0  0  0  0  0  0  0  0  0
   17.4090   -2.4060   18.0570 C   0  0  0  0  0  0  0  0  0  0  0  0
   16.3700   -1.5650   17.6800 C   0  0  0  0  0  0  0  0  0  0  0  0
  7  6  1  0
  6  2  1  0
  2  1  1  0
  3  2  2  0
  4  3  1  0
  4 11  2  0
 11 10  1  0
 10  9  2  0
  9  8  1  0
  8  5  2  0
  6  5  1  0
  5  4  1  0
M  END
>  <id>  (256) 
6044

>  <inchikey>  (256) 
XDFZKQJLNGNJAN-UHFFFAOYSA-N

>  <alias>  (256) 
c1203g

>  <smiles>  (256) 
Cn1c(N)nc2ccccc21

>  <path>  (256) 
/opt/xchem-fragalysis-2/maxwin/CHIKV_Mac_20240920/aligned_files/c1203g/c1203g_hippo.pdb

>  <compound>  (256) 
XDFZKQJLNGNJAN-UHFFFAOYSA-N

>  <target>  (256) 
CHIKV_Mac

>  <tags>  (256) 
['hits', '[Other] Trp148 site', '[Other] fragment screen']

>  <reference>  (256) 
None

>  <exports>  (256) 
['/opt/xchem-fragalysis-2/maxwin/CHIKV_HIPPO/web_resources/hit_poses.sdf', '/opt/xchem-fragalysis-2/maxwin/CHIKV_HIPPO/web/web_resources/hit_poses.sdf', '/opt/xchem-fragalysis-2/maxwin/CHIKV_HIPPO/web2/web_resources/hit_poses.sdf']

>  <observation_longname>  (256) 
nan

>  <ConformerSites alias>  (256) 
nan

>  <CanonSites alias>  (256) 
nan

>  <CrystalformSites alias>  (256) 
nan

>  <Quatassemblies alias>  (256) 
nan

>  <Crystalforms alias>  (256) 
nan

$$$$
c1203e
     RDKit          3D

 11 12  0  0  0  0  0  0  0  0999 V2000
   14.4610   13.3690   11.6330 N   0  0  0  0  0  0  0  0  0  0  0  0
   14.6290   12.0520   11.5500 C   0  0  0  0  0  0  0  0  0  0  0  0
   14.7650   11.3830   10.4240 N   0  0  0  0  0  0  0  0  0  0  0  0
   14.9490   10.0560   10.8040 C   0  0  0  0  0  0  0  0  0  0  0  0
   14.9180    9.9510   12.1940 C   0  0  0  0  0  0  0  0  0  0  0  0
   14.7160   11.2400   12.6590 N   0  0  0  0  0  0  0  0  0  0  0  0
   14.6120   11.6180   14.0640 C   0  0  0  0  0  0  0  0  0  0  0  0
   15.0620    8.7380   12.8510 C   0  0  0  0  0  0  0  0  0  0  0  0
   15.2400    7.6060   12.0690 C   0  0  0  0  0  0  0  0  0  0  0  0
   15.2580    7.6910   10.6760 C   0  0  0  0  0  0  0  0  0  0  0  0
   15.1240    8.9120   10.0300 C   0  0  0  0  0  0  0  0  0  0  0  0
  7  6  1  0
  6  2  1  0
  2  1  1  0
  3  2  2  0
  4  3  1  0
  4 11  2  0
 11 10  1  0
 10  9  2  0
  9  8  1  0
  8  5  2  0
  6  5  1  0
  5  4  1  0
M  END
>  <id>  (257) 
6045

>  <inchikey>  (257) 
XDFZKQJLNGNJAN-UHFFFAOYSA-N

>  <alias>  (257) 
c1203e

>  <smiles>  (257) 
Cn1c(N)nc2ccccc21

>  <path>  (257) 
/opt/xchem-fragalysis-2/maxwin/CHIKV_Mac_20240920/aligned_files/c1203e/c1203e_hippo.pdb

>  <compound>  (257) 
XDFZKQJLNGNJAN-UHFFFAOYSA-N

>  <target>  (257) 
CHIKV_Mac

>  <tags>  (257) 
['[Other] Adenine site', 'hits', '[Other] fragment screen']

>  <reference>  (257) 
None

>  <exports>  (257) 
['/opt/xchem-fragalysis-2/maxwin/CHIKV_HIPPO/web_resources/hit_poses.sdf', '/opt/xchem-fragalysis-2/maxwin/CHIKV_HIPPO/web/web_resources/hit_poses.sdf', '/opt/xchem-fragalysis-2/maxwin/CHIKV_HIPPO/web2/web_resources/hit_poses.sdf']

>  <observation_longname>  (257) 
nan

>  <ConformerSites alias>  (257) 
nan

>  <CanonSites alias>  (257) 
nan

>  <CrystalformSites alias>  (257) 
nan

>  <Quatassemblies alias>  (257) 
nan

>  <Crystalforms alias>  (257) 
nan

$$$$
c1203f
     RDKit          3D

 11 12  0  0  0  0  0  0  0  0999 V2000
   14.1980   13.5970   11.6130 N   0  0  0  0  0  0  0  0  0  0  0  0
   14.4590   12.3080   11.4060 C   0  0  0  0  0  0  0  0  0  0  0  0
   14.4420   11.7190   10.2300 N   0  0  0  0  0  0  0  0  0  0  0  0
   14.7400   10.3790   10.4850 C   0  0  0  0  0  0  0  0  0  0  0  0
   14.9400   10.1870   11.8490 C   0  0  0  0  0  0  0  0  0  0  0  0
   14.7600   11.4300   12.4300 N   0  0  0  0  0  0  0  0  0  0  0  0
   14.8510   11.6950   13.8620 C   0  0  0  0  0  0  0  0  0  0  0  0
   15.2040    8.9370   12.3940 C   0  0  0  0  0  0  0  0  0  0  0  0
   15.2560    7.8570   11.5220 C   0  0  0  0  0  0  0  0  0  0  0  0
   15.0490    8.0300   10.1550 C   0  0  0  0  0  0  0  0  0  0  0  0
   14.8000    9.2890    9.6200 C   0  0  0  0  0  0  0  0  0  0  0  0
  7  6  1  0
  6  2  1  0
  2  1  1  0
  3  2  2  0
  4  3  1  0
  4 11  2  0
 11 10  1  0
 10  9  2  0
  9  8  1  0
  8  5  2  0
  6  5  1  0
  5  4  1  0
M  END
>  <id>  (258) 
6046

>  <inchikey>  (258) 
XDFZKQJLNGNJAN-UHFFFAOYSA-N

>  <alias>  (258) 
c1203f

>  <smiles>  (258) 
Cn1c(N)nc2ccccc21

>  <path>  (258) 
/opt/xchem-fragalysis-2/maxwin/CHIKV_Mac_20240920/aligned_files/c1203f/c1203f_hippo.pdb

>  <compound>  (258) 
XDFZKQJLNGNJAN-UHFFFAOYSA-N

>  <target>  (258) 
CHIKV_Mac

>  <tags>  (258) 
['[Other] Adenine site', 'hits', '[Other] fragment screen']

>  <reference>  (258) 
None

>  <exports>  (258) 
['/opt/xchem-fragalysis-2/maxwin/CHIKV_HIPPO/web_resources/hit_poses.sdf', '/opt/xchem-fragalysis-2/maxwin/CHIKV_HIPPO/web/web_resources/hit_poses.sdf', '/opt/xchem-fragalysis-2/maxwin/CHIKV_HIPPO/web2/web_resources/hit_poses.sdf']

>  <observation_longname>  (258) 
nan

>  <ConformerSites alias>  (258) 
nan

>  <CanonSites alias>  (258) 
nan

>  <CrystalformSites alias>  (258) 
nan

>  <Quatassemblies alias>  (258) 
nan

>  <Crystalforms alias>  (258) 
nan

$$$$
c1203h
     RDKit          3D

 11 12  0  0  0  0  0  0  0  0999 V2000
   14.4700   13.4450   11.8100 N   0  0  0  0  0  0  0  0  0  0  0  0
   14.6620   12.1460   11.5730 C   0  0  0  0  0  0  0  0  0  0  0  0
   14.7220   11.6070   10.3770 N   0  0  0  0  0  0  0  0  0  0  0  0
   14.8340   10.2320   10.5960 C   0  0  0  0  0  0  0  0  0  0  0  0
   14.8430    9.9670   11.9620 C   0  0  0  0  0  0  0  0  0  0  0  0
   14.7430   11.2020   12.5800 N   0  0  0  0  0  0  0  0  0  0  0  0
   14.6780   11.4200   14.0220 C   0  0  0  0  0  0  0  0  0  0  0  0
   14.9200    8.6750   12.4670 C   0  0  0  0  0  0  0  0  0  0  0  0
   14.9970    7.6320   11.5520 C   0  0  0  0  0  0  0  0  0  0  0  0
   14.9830    7.8790   10.1820 C   0  0  0  0  0  0  0  0  0  0  0  0
   14.9060    9.1760    9.6880 C   0  0  0  0  0  0  0  0  0  0  0  0
  7  6  1  0
  6  2  1  0
  2  1  1  0
  3  2  2  0
  4  3  1  0
  4 11  2  0
 11 10  1  0
 10  9  2  0
  9  8  1  0
  8  5  2  0
  6  5  1  0
  5  4  1  0
M  END
>  <id>  (259) 
6047

>  <inchikey>  (259) 
XDFZKQJLNGNJAN-UHFFFAOYSA-N

>  <alias>  (259) 
c1203h

>  <smiles>  (259) 
Cn1c(N)nc2ccccc21

>  <path>  (259) 
/opt/xchem-fragalysis-2/maxwin/CHIKV_Mac_20240920/aligned_files/c1203h/c1203h_hippo.pdb

>  <compound>  (259) 
XDFZKQJLNGNJAN-UHFFFAOYSA-N

>  <target>  (259) 
CHIKV_Mac

>  <tags>  (259) 
['[Other] Adenine site', 'hits', '[Other] fragment screen']

>  <reference>  (259) 
None

>  <exports>  (259) 
['/opt/xchem-fragalysis-2/maxwin/CHIKV_HIPPO/web_resources/hit_poses.sdf', '/opt/xchem-fragalysis-2/maxwin/CHIKV_HIPPO/web/web_resources/hit_poses.sdf', '/opt/xchem-fragalysis-2/maxwin/CHIKV_HIPPO/web2/web_resources/hit_poses.sdf']

>  <observation_longname>  (259) 
nan

>  <ConformerSites alias>  (259) 
nan

>  <CanonSites alias>  (259) 
nan

>  <CrystalformSites alias>  (259) 
nan

>  <Quatassemblies alias>  (259) 
nan

>  <Crystalforms alias>  (259) 
nan

$$$$
c1213a
     RDKit          3D

 10 11  0  0  0  0  0  0  0  0999 V2000
   14.7240    9.9650    9.5420 C   0  0  0  0  0  0  0  0  0  0  0  0
   15.4190    8.6450    9.8450 C   0  0  0  0  0  0  0  0  0  0  0  0
   14.5290   10.8160   10.7670 C   0  0  0  0  0  0  0  0  0  0  0  0
   14.6830   10.2520   12.0490 C   0  0  0  0  0  0  0  0  0  0  0  0
   14.9060    8.9010   12.2280 N   0  0  0  0  0  0  0  0  0  0  0  0
   15.0010    7.9650   11.1260 C   0  0  0  0  0  0  0  0  0  0  0  0
   14.2500   12.1130   10.5600 N   0  0  0  0  0  0  0  0  0  0  0  0
   14.1300   12.8970   11.6440 C   0  0  0  0  0  0  0  0  0  0  0  0
   14.2860   12.4420   12.9420 C   0  0  0  0  0  0  0  0  0  0  0  0
   14.5670   11.1010   13.1500 C   0  0  0  0  0  0  0  0  0  0  0  0
  2  6  1  0
  6  5  1  0
  5  4  1  0
  4 10  2  0
 10  9  1  0
  9  8  2  0
  8  7  1  0
  7  3  2  0
  4  3  1  0
  3  1  1  0
  2  1  1  0
M  END
>  <id>  (260) 
6048

>  <inchikey>  (260) 
OALXTMWCXNPUKJ-UHFFFAOYSA-N

>  <alias>  (260) 
c1213a

>  <smiles>  (260) 
c1cnc2c(c1)NCCC2

>  <path>  (260) 
/opt/xchem-fragalysis-2/maxwin/CHIKV_Mac_20240920/aligned_files/c1213a/c1213a_hippo.pdb

>  <compound>  (260) 
OALXTMWCXNPUKJ-UHFFFAOYSA-N

>  <target>  (260) 
CHIKV_Mac

>  <tags>  (260) 
['[Other] Adenine site', 'hits', '[Other] fragment screen']

>  <reference>  (260) 
None

>  <exports>  (260) 
['/opt/xchem-fragalysis-2/maxwin/CHIKV_HIPPO/web_resources/hit_poses.sdf', '/opt/xchem-fragalysis-2/maxwin/CHIKV_HIPPO/web/web_resources/hit_poses.sdf', '/opt/xchem-fragalysis-2/maxwin/CHIKV_HIPPO/web2/web_resources/hit_poses.sdf']

>  <observation_longname>  (260) 
nan

>  <ConformerSites alias>  (260) 
nan

>  <CanonSites alias>  (260) 
nan

>  <CrystalformSites alias>  (260) 
nan

>  <Quatassemblies alias>  (260) 
nan

>  <Crystalforms alias>  (260) 
nan

$$$$
c1213b
     RDKit          3D

 10 11  0  0  0  0  0  0  0  0999 V2000
   20.3910   14.5740   13.2970 C   0  0  0  0  0  0  0  0  0  0  0  0
   21.8890   14.4390   13.4960 C   0  0  0  0  0  0  0  0  0  0  0  0
   19.8070   13.5180   12.3990 C   0  0  0  0  0  0  0  0  0  0  0  0
   20.6340   12.6520   11.6560 C   0  0  0  0  0  0  0  0  0  0  0  0
   22.0020   12.7800   11.6490 N   0  0  0  0  0  0  0  0  0  0  0  0
   22.7100   13.8200   12.3840 C   0  0  0  0  0  0  0  0  0  0  0  0
   18.4690   13.4280   12.3990 N   0  0  0  0  0  0  0  0  0  0  0  0
   17.9090   12.4540   11.6680 C   0  0  0  0  0  0  0  0  0  0  0  0
   18.6320   11.5500   10.9200 C   0  0  0  0  0  0  0  0  0  0  0  0
   20.0160   11.6480   10.9050 C   0  0  0  0  0  0  0  0  0  0  0  0
  2  6  1  0
  6  5  1  0
  5  4  1  0
  4 10  2  0
 10  9  1  0
  9  8  2  0
  8  7  1  0
  7  3  2  0
  4  3  1  0
  3  1  1  0
  2  1  1  0
M  END
>  <id>  (261) 
6049

>  <inchikey>  (261) 
OALXTMWCXNPUKJ-UHFFFAOYSA-N

>  <alias>  (261) 
c1213b

>  <smiles>  (261) 
c1cnc2c(c1)NCCC2

>  <path>  (261) 
/opt/xchem-fragalysis-2/maxwin/CHIKV_Mac_20240920/aligned_files/c1213b/c1213b_hippo.pdb

>  <compound>  (261) 
OALXTMWCXNPUKJ-UHFFFAOYSA-N

>  <target>  (261) 
CHIKV_Mac

>  <tags>  (261) 
['hits', '[Other] Arg144 pocket', '[Other] fragment screen']

>  <reference>  (261) 
None

>  <exports>  (261) 
['/opt/xchem-fragalysis-2/maxwin/CHIKV_HIPPO/web_resources/hit_poses.sdf', '/opt/xchem-fragalysis-2/maxwin/CHIKV_HIPPO/web/web_resources/hit_poses.sdf', '/opt/xchem-fragalysis-2/maxwin/CHIKV_HIPPO/web2/web_resources/hit_poses.sdf']

>  <observation_longname>  (261) 
nan

>  <ConformerSites alias>  (261) 
nan

>  <CanonSites alias>  (261) 
nan

>  <CrystalformSites alias>  (261) 
nan

>  <Quatassemblies alias>  (261) 
nan

>  <Crystalforms alias>  (261) 
nan

$$$$
c1213c
     RDKit          3D

 10 11  0  0  0  0  0  0  0  0999 V2000
   14.9690    9.7350    9.7600 C   0  0  0  0  0  0  0  0  0  0  0  0
   14.5730    8.3230   10.1190 C   0  0  0  0  0  0  0  0  0  0  0  0
   14.6080   10.7260   10.8340 C   0  0  0  0  0  0  0  0  0  0  0  0
   14.5550   10.3190   12.1770 C   0  0  0  0  0  0  0  0  0  0  0  0
   14.6860    8.9910   12.5330 N   0  0  0  0  0  0  0  0  0  0  0  0
   14.8580    7.9110   11.5590 C   0  0  0  0  0  0  0  0  0  0  0  0
   14.3560   11.9820   10.4330 N   0  0  0  0  0  0  0  0  0  0  0  0
   14.0560   12.8860   11.3770 C   0  0  0  0  0  0  0  0  0  0  0  0
   14.0050   12.5910   12.7230 C   0  0  0  0  0  0  0  0  0  0  0  0
   14.2630   11.2910   13.1360 C   0  0  0  0  0  0  0  0  0  0  0  0
  2  6  1  0
  6  5  1  0
  5  4  1  0
  4 10  2  0
 10  9  1  0
  9  8  2  0
  8  7  1  0
  7  3  2  0
  4  3  1  0
  3  1  1  0
  2  1  1  0
M  END
>  <id>  (262) 
6050

>  <inchikey>  (262) 
OALXTMWCXNPUKJ-UHFFFAOYSA-N

>  <alias>  (262) 
c1213c

>  <smiles>  (262) 
c1cnc2c(c1)NCCC2

>  <path>  (262) 
/opt/xchem-fragalysis-2/maxwin/CHIKV_Mac_20240920/aligned_files/c1213c/c1213c_hippo.pdb

>  <compound>  (262) 
OALXTMWCXNPUKJ-UHFFFAOYSA-N

>  <target>  (262) 
CHIKV_Mac

>  <tags>  (262) 
['[Other] Adenine site', 'hits', '[Other] fragment screen']

>  <reference>  (262) 
None

>  <exports>  (262) 
['/opt/xchem-fragalysis-2/maxwin/CHIKV_HIPPO/web_resources/hit_poses.sdf', '/opt/xchem-fragalysis-2/maxwin/CHIKV_HIPPO/web/web_resources/hit_poses.sdf', '/opt/xchem-fragalysis-2/maxwin/CHIKV_HIPPO/web2/web_resources/hit_poses.sdf']

>  <observation_longname>  (262) 
nan

>  <ConformerSites alias>  (262) 
nan

>  <CanonSites alias>  (262) 
nan

>  <CrystalformSites alias>  (262) 
nan

>  <Quatassemblies alias>  (262) 
nan

>  <Crystalforms alias>  (262) 
nan

$$$$
c1213d
     RDKit          3D

 10 11  0  0  0  0  0  0  0  0999 V2000
   14.9680    9.7900    9.6570 C   0  0  0  0  0  0  0  0  0  0  0  0
   14.7810    8.3380   10.0730 C   0  0  0  0  0  0  0  0  0  0  0  0
   14.6490   10.7520   10.7620 C   0  0  0  0  0  0  0  0  0  0  0  0
   14.6640   10.3110   12.0980 C   0  0  0  0  0  0  0  0  0  0  0  0
   14.9350    9.0020   12.4390 N   0  0  0  0  0  0  0  0  0  0  0  0
   15.2540    7.9780   11.4560 C   0  0  0  0  0  0  0  0  0  0  0  0
   14.3560   12.0100   10.3970 N   0  0  0  0  0  0  0  0  0  0  0  0
   14.0710   12.8840   11.3730 C   0  0  0  0  0  0  0  0  0  0  0  0
   14.0710   12.5550   12.7120 C   0  0  0  0  0  0  0  0  0  0  0  0
   14.3680   11.2520   13.0860 C   0  0  0  0  0  0  0  0  0  0  0  0
  2  6  1  0
  6  5  1  0
  5  4  1  0
  4 10  2  0
 10  9  1  0
  9  8  2  0
  8  7  1  0
  7  3  2  0
  4  3  1  0
  3  1  1  0
  2  1  1  0
M  END
>  <id>  (263) 
6051

>  <inchikey>  (263) 
OALXTMWCXNPUKJ-UHFFFAOYSA-N

>  <alias>  (263) 
c1213d

>  <smiles>  (263) 
c1cnc2c(c1)NCCC2

>  <path>  (263) 
/opt/xchem-fragalysis-2/maxwin/CHIKV_Mac_20240920/aligned_files/c1213d/c1213d_hippo.pdb

>  <compound>  (263) 
OALXTMWCXNPUKJ-UHFFFAOYSA-N

>  <target>  (263) 
CHIKV_Mac

>  <tags>  (263) 
['[Other] Adenine site', 'hits', '[Other] fragment screen']

>  <reference>  (263) 
None

>  <exports>  (263) 
['/opt/xchem-fragalysis-2/maxwin/CHIKV_HIPPO/web_resources/hit_poses.sdf', '/opt/xchem-fragalysis-2/maxwin/CHIKV_HIPPO/web/web_resources/hit_poses.sdf', '/opt/xchem-fragalysis-2/maxwin/CHIKV_HIPPO/web2/web_resources/hit_poses.sdf']

>  <observation_longname>  (263) 
nan

>  <ConformerSites alias>  (263) 
nan

>  <CanonSites alias>  (263) 
nan

>  <CrystalformSites alias>  (263) 
nan

>  <Quatassemblies alias>  (263) 
nan

>  <Crystalforms alias>  (263) 
nan

$$$$
c1213e
     RDKit          3D

 10 11  0  0  0  0  0  0  0  0999 V2000
   15.0260   10.0970    9.6610 C   0  0  0  0  0  0  0  0  0  0  0  0
   15.0410    8.5860    9.8210 C   0  0  0  0  0  0  0  0  0  0  0  0
   14.6930   10.8370   10.9280 C   0  0  0  0  0  0  0  0  0  0  0  0
   14.6590   10.1720   12.1740 C   0  0  0  0  0  0  0  0  0  0  0  0
   14.8970    8.8190   12.2880 N   0  0  0  0  0  0  0  0  0  0  0  0
   15.2200    7.9410   11.1730 C   0  0  0  0  0  0  0  0  0  0  0  0
   14.4580   12.1520   10.7940 N   0  0  0  0  0  0  0  0  0  0  0  0
   14.1910   12.8520   11.9080 C   0  0  0  0  0  0  0  0  0  0  0  0
   14.1470   12.2910   13.1740 C   0  0  0  0  0  0  0  0  0  0  0  0
   14.3830   10.9320   13.3110 C   0  0  0  0  0  0  0  0  0  0  0  0
  2  6  1  0
  6  5  1  0
  5  4  1  0
  4 10  2  0
 10  9  1  0
  9  8  2  0
  8  7  1  0
  7  3  2  0
  4  3  1  0
  3  1  1  0
  2  1  1  0
M  END
>  <id>  (264) 
6052

>  <inchikey>  (264) 
OALXTMWCXNPUKJ-UHFFFAOYSA-N

>  <alias>  (264) 
c1213e

>  <smiles>  (264) 
c1cnc2c(c1)NCCC2

>  <path>  (264) 
/opt/xchem-fragalysis-2/maxwin/CHIKV_Mac_20240920/aligned_files/c1213e/c1213e_hippo.pdb

>  <compound>  (264) 
OALXTMWCXNPUKJ-UHFFFAOYSA-N

>  <target>  (264) 
CHIKV_Mac

>  <tags>  (264) 
['[Other] Adenine site', 'hits', '[Other] fragment screen']

>  <reference>  (264) 
None

>  <exports>  (264) 
['/opt/xchem-fragalysis-2/maxwin/CHIKV_HIPPO/web_resources/hit_poses.sdf', '/opt/xchem-fragalysis-2/maxwin/CHIKV_HIPPO/web/web_resources/hit_poses.sdf', '/opt/xchem-fragalysis-2/maxwin/CHIKV_HIPPO/web2/web_resources/hit_poses.sdf']

>  <observation_longname>  (264) 
nan

>  <ConformerSites alias>  (264) 
nan

>  <CanonSites alias>  (264) 
nan

>  <CrystalformSites alias>  (264) 
nan

>  <Quatassemblies alias>  (264) 
nan

>  <Crystalforms alias>  (264) 
nan

$$$$
c1258a
     RDKit          3D

  9  9  0  0  0  0  0  0  0  0999 V2000
   17.3580    5.0710   11.5200 O   0  0  0  0  0  0  0  0  0  0  0  0
   16.6120    4.1540   11.8400 C   0  0  0  0  0  0  0  0  0  0  0  0
   15.5450    3.8000   11.1320 N   0  0  0  0  0  0  0  0  0  0  0  0
   16.8820    3.3800   13.0980 C   0  0  0  0  0  0  0  0  0  0  0  0
   15.8760    2.6780   13.6420 N   0  0  0  0  0  0  0  0  0  0  0  0
   16.1620    1.9950   14.7600 C   0  0  0  0  0  0  0  0  0  0  0  0
   17.4200    2.0100   15.3270 C   0  0  0  0  0  0  0  0  0  0  0  0
   18.4220    2.7150   14.7960 N   0  0  0  0  0  0  0  0  0  0  0  0
   18.1440    3.3990   13.6810 C   0  0  0  0  0  0  0  0  0  0  0  0
  3  2  1  0
  2  1  2  0
  4  2  1  0
  4  9  2  0
  9  8  1  0
  8  7  2  0
  7  6  1  0
  6  5  2  0
  5  4  1  0
M  END
>  <id>  (265) 
6053

>  <inchikey>  (265) 
IPEHBUMCGVEMRF-UHFFFAOYSA-N

>  <alias>  (265) 
c1258a

>  <smiles>  (265) 
NC(=O)c1cnccn1

>  <path>  (265) 
/opt/xchem-fragalysis-2/maxwin/CHIKV_Mac_20240920/aligned_files/c1258a/c1258a_hippo.pdb

>  <compound>  (265) 
IPEHBUMCGVEMRF-UHFFFAOYSA-N

>  <target>  (265) 
CHIKV_Mac

>  <tags>  (265) 
['[Other] Oxyanion site', 'hits', '[Other] Trp148 site', '[Other] fragment screen']

>  <reference>  (265) 
None

>  <exports>  (265) 
['/opt/xchem-fragalysis-2/maxwin/CHIKV_HIPPO/web_resources/hit_poses.sdf', '/opt/xchem-fragalysis-2/maxwin/CHIKV_HIPPO/web/web_resources/hit_poses.sdf', '/opt/xchem-fragalysis-2/maxwin/CHIKV_HIPPO/web2/web_resources/hit_poses.sdf']

>  <observation_longname>  (265) 
nan

>  <ConformerSites alias>  (265) 
nan

>  <CanonSites alias>  (265) 
nan

>  <CrystalformSites alias>  (265) 
nan

>  <Quatassemblies alias>  (265) 
nan

>  <Crystalforms alias>  (265) 
nan

$$$$
c1258b
     RDKit          3D

  9  9  0  0  0  0  0  0  0  0999 V2000
   17.1780    3.9000   11.2440 O   0  0  0  0  0  0  0  0  0  0  0  0
   16.3750    3.5700   12.1370 C   0  0  0  0  0  0  0  0  0  0  0  0
   15.0640    3.7740   12.0530 N   0  0  0  0  0  0  0  0  0  0  0  0
   16.8770    2.9000   13.3830 C   0  0  0  0  0  0  0  0  0  0  0  0
   15.9710    2.4700   14.2760 N   0  0  0  0  0  0  0  0  0  0  0  0
   16.4490    1.8380   15.3580 C   0  0  0  0  0  0  0  0  0  0  0  0
   17.8020    1.6360   15.5480 C   0  0  0  0  0  0  0  0  0  0  0  0
   18.7090    2.0710   14.6680 N   0  0  0  0  0  0  0  0  0  0  0  0
   18.2380    2.7060   13.5890 C   0  0  0  0  0  0  0  0  0  0  0  0
  3  2  1  0
  2  1  2  0
  4  2  1  0
  4  9  2  0
  9  8  1  0
  8  7  2  0
  7  6  1  0
  6  5  2  0
  5  4  1  0
M  END
>  <id>  (266) 
6054

>  <inchikey>  (266) 
IPEHBUMCGVEMRF-UHFFFAOYSA-N

>  <alias>  (266) 
c1258b

>  <smiles>  (266) 
NC(=O)c1cnccn1

>  <path>  (266) 
/opt/xchem-fragalysis-2/maxwin/CHIKV_Mac_20240920/aligned_files/c1258b/c1258b_hippo.pdb

>  <compound>  (266) 
IPEHBUMCGVEMRF-UHFFFAOYSA-N

>  <target>  (266) 
CHIKV_Mac

>  <tags>  (266) 
['[Other] Oxyanion site', 'hits', '[Other] Trp148 site', '[Other] fragment screen']

>  <reference>  (266) 
None

>  <exports>  (266) 
['/opt/xchem-fragalysis-2/maxwin/CHIKV_HIPPO/web_resources/hit_poses.sdf', '/opt/xchem-fragalysis-2/maxwin/CHIKV_HIPPO/web/web_resources/hit_poses.sdf', '/opt/xchem-fragalysis-2/maxwin/CHIKV_HIPPO/web2/web_resources/hit_poses.sdf']

>  <observation_longname>  (266) 
nan

>  <ConformerSites alias>  (266) 
nan

>  <CanonSites alias>  (266) 
nan

>  <CrystalformSites alias>  (266) 
nan

>  <Quatassemblies alias>  (266) 
nan

>  <Crystalforms alias>  (266) 
nan

$$$$
c1258c
     RDKit          3D

  9  9  0  0  0  0  0  0  0  0999 V2000
   17.8050    4.4080   11.2910 O   0  0  0  0  0  0  0  0  0  0  0  0
   16.8500    3.8040   11.7780 C   0  0  0  0  0  0  0  0  0  0  0  0
   15.6980    3.6000   11.1340 N   0  0  0  0  0  0  0  0  0  0  0  0
   16.9640    3.2400   13.1650 C   0  0  0  0  0  0  0  0  0  0  0  0
   18.1940    3.1380   13.6950 N   0  0  0  0  0  0  0  0  0  0  0  0
   18.2710    2.6530   14.9410 C   0  0  0  0  0  0  0  0  0  0  0  0
   17.1480    2.2860   15.6510 C   0  0  0  0  0  0  0  0  0  0  0  0
   15.9230    2.3840   15.1270 N   0  0  0  0  0  0  0  0  0  0  0  0
   15.8380    2.8530   13.8800 C   0  0  0  0  0  0  0  0  0  0  0  0
  3  2  1  0
  2  1  2  0
  4  2  1  0
  4  9  2  0
  9  8  1  0
  8  7  2  0
  7  6  1  0
  6  5  2  0
  5  4  1  0
M  END
>  <id>  (267) 
6055

>  <inchikey>  (267) 
IPEHBUMCGVEMRF-UHFFFAOYSA-N

>  <alias>  (267) 
c1258c

>  <smiles>  (267) 
NC(=O)c1cnccn1

>  <path>  (267) 
/opt/xchem-fragalysis-2/maxwin/CHIKV_Mac_20240920/aligned_files/c1258c/c1258c_hippo.pdb

>  <compound>  (267) 
IPEHBUMCGVEMRF-UHFFFAOYSA-N

>  <target>  (267) 
CHIKV_Mac

>  <tags>  (267) 
['[Other] Oxyanion site', 'hits', '[Other] Trp148 site', '[Other] fragment screen']

>  <reference>  (267) 
None

>  <exports>  (267) 
['/opt/xchem-fragalysis-2/maxwin/CHIKV_HIPPO/web_resources/hit_poses.sdf', '/opt/xchem-fragalysis-2/maxwin/CHIKV_HIPPO/web/web_resources/hit_poses.sdf', '/opt/xchem-fragalysis-2/maxwin/CHIKV_HIPPO/web2/web_resources/hit_poses.sdf']

>  <observation_longname>  (267) 
nan

>  <ConformerSites alias>  (267) 
nan

>  <CanonSites alias>  (267) 
nan

>  <CrystalformSites alias>  (267) 
nan

>  <Quatassemblies alias>  (267) 
nan

>  <Crystalforms alias>  (267) 
nan

$$$$
c1258d
     RDKit          3D

  9  9  0  0  0  0  0  0  0  0999 V2000
   17.0860    4.1980   11.0570 O   0  0  0  0  0  0  0  0  0  0  0  0
   16.2450    3.7660   11.8420 C   0  0  0  0  0  0  0  0  0  0  0  0
   14.9480    3.7490   11.5730 N   0  0  0  0  0  0  0  0  0  0  0  0
   16.6730    3.2280   13.1780 C   0  0  0  0  0  0  0  0  0  0  0  0
   15.7190    2.8660   14.0500 N   0  0  0  0  0  0  0  0  0  0  0  0
   16.1360    2.3930   15.2350 C   0  0  0  0  0  0  0  0  0  0  0  0
   17.4750    2.2780   15.5450 C   0  0  0  0  0  0  0  0  0  0  0  0
   18.4280    2.6410   14.6830 N   0  0  0  0  0  0  0  0  0  0  0  0
   18.0210    3.1150   13.5010 C   0  0  0  0  0  0  0  0  0  0  0  0
  3  2  1  0
  2  1  2  0
  4  2  1  0
  4  9  2  0
  9  8  1  0
  8  7  2  0
  7  6  1  0
  6  5  2  0
  5  4  1  0
M  END
>  <id>  (268) 
6056

>  <inchikey>  (268) 
IPEHBUMCGVEMRF-UHFFFAOYSA-N

>  <alias>  (268) 
c1258d

>  <smiles>  (268) 
NC(=O)c1cnccn1

>  <path>  (268) 
/opt/xchem-fragalysis-2/maxwin/CHIKV_Mac_20240920/aligned_files/c1258d/c1258d_hippo.pdb

>  <compound>  (268) 
IPEHBUMCGVEMRF-UHFFFAOYSA-N

>  <target>  (268) 
CHIKV_Mac

>  <tags>  (268) 
['[Other] Oxyanion site', 'hits', '[Other] Trp148 site', '[Other] fragment screen']

>  <reference>  (268) 
None

>  <exports>  (268) 
['/opt/xchem-fragalysis-2/maxwin/CHIKV_HIPPO/web_resources/hit_poses.sdf', '/opt/xchem-fragalysis-2/maxwin/CHIKV_HIPPO/web/web_resources/hit_poses.sdf', '/opt/xchem-fragalysis-2/maxwin/CHIKV_HIPPO/web2/web_resources/hit_poses.sdf']

>  <observation_longname>  (268) 
nan

>  <ConformerSites alias>  (268) 
nan

>  <CanonSites alias>  (268) 
nan

>  <CrystalformSites alias>  (268) 
nan

>  <Quatassemblies alias>  (268) 
nan

>  <Crystalforms alias>  (268) 
nan

$$$$
c1260b
     RDKit          3D

 11 12  0  0  0  0  0  0  0  0999 V2000
   14.4520    7.9460    9.4190 N   0  0  0  0  0  0  0  0  0  0  0  0
   14.6700    8.7910   10.4630 C   0  0  0  0  0  0  0  0  0  0  0  0
   14.4660   10.1570   10.3200 C   0  0  0  0  0  0  0  0  0  0  0  0
   14.5510   11.0260   11.4330 C   0  0  0  0  0  0  0  0  0  0  0  0
   14.8810   10.4870   12.6980 C   0  0  0  0  0  0  0  0  0  0  0  0
   15.1270    9.1000   12.8100 C   0  0  0  0  0  0  0  0  0  0  0  0
   15.0200    8.2860   11.7230 C   0  0  0  0  0  0  0  0  0  0  0  0
   14.2410   12.3990   11.3650 C   0  0  0  0  0  0  0  0  0  0  0  0
   14.2670   13.1520   12.4990 C   0  0  0  0  0  0  0  0  0  0  0  0
   14.5880   12.5400   13.7030 C   0  0  0  0  0  0  0  0  0  0  0  0
   14.8980   11.2610   13.8320 N   0  0  0  0  0  0  0  0  0  0  0  0
  2  1  1  0
  2  7  2  0
  7  6  1  0
  6  5  2  0
  5 11  1  0
 11 10  2  0
 10  9  1  0
  9  8  2  0
  8  4  1  0
  5  4  1  0
  4  3  2  0
  3  2  1  0
M  END
>  <id>  (269) 
6057

>  <inchikey>  (269) 
RJSRSRITMWVIQT-UHFFFAOYSA-N

>  <alias>  (269) 
c1260b

>  <smiles>  (269) 
Nc1ccc2ncccc2c1

>  <path>  (269) 
/opt/xchem-fragalysis-2/maxwin/CHIKV_Mac_20240920/aligned_files/c1260b/c1260b_hippo.pdb

>  <compound>  (269) 
RJSRSRITMWVIQT-UHFFFAOYSA-N

>  <target>  (269) 
CHIKV_Mac

>  <tags>  (269) 
['[Other] Adenine site', 'hits', '[Other] fragment screen']

>  <reference>  (269) 
None

>  <exports>  (269) 
['/opt/xchem-fragalysis-2/maxwin/CHIKV_HIPPO/web_resources/hit_poses.sdf', '/opt/xchem-fragalysis-2/maxwin/CHIKV_HIPPO/web/web_resources/hit_poses.sdf', '/opt/xchem-fragalysis-2/maxwin/CHIKV_HIPPO/web2/web_resources/hit_poses.sdf']

>  <observation_longname>  (269) 
nan

>  <ConformerSites alias>  (269) 
nan

>  <CanonSites alias>  (269) 
nan

>  <CrystalformSites alias>  (269) 
nan

>  <Quatassemblies alias>  (269) 
nan

>  <Crystalforms alias>  (269) 
nan

$$$$
c1260c
     RDKit          3D

 11 12  0  0  0  0  0  0  0  0999 V2000
   15.0250   11.9830   15.5520 N   0  0  0  0  0  0  0  0  0  0  0  0
   14.8750   11.6490   14.2250 C   0  0  0  0  0  0  0  0  0  0  0  0
   15.0950   10.3480   13.7950 C   0  0  0  0  0  0  0  0  0  0  0  0
   14.9760   10.0010   12.4310 C   0  0  0  0  0  0  0  0  0  0  0  0
   14.6310   11.0050   11.4990 C   0  0  0  0  0  0  0  0  0  0  0  0
   14.3900   12.3180   11.9610 C   0  0  0  0  0  0  0  0  0  0  0  0
   14.5080   12.6210   13.2840 C   0  0  0  0  0  0  0  0  0  0  0  0
   15.2000    8.6950   11.9460 C   0  0  0  0  0  0  0  0  0  0  0  0
   15.0880    8.4490   10.6100 C   0  0  0  0  0  0  0  0  0  0  0  0
   14.7570    9.5000    9.7580 C   0  0  0  0  0  0  0  0  0  0  0  0
   14.5320   10.7420   10.1540 N   0  0  0  0  0  0  0  0  0  0  0  0
  2  1  1  0
  2  7  2  0
  7  6  1  0
  6  5  2  0
  5 11  1  0
 11 10  2  0
 10  9  1  0
  9  8  2  0
  8  4  1  0
  5  4  1  0
  4  3  2  0
  3  2  1  0
M  END
>  <id>  (270) 
6058

>  <inchikey>  (270) 
RJSRSRITMWVIQT-UHFFFAOYSA-N

>  <alias>  (270) 
c1260c

>  <smiles>  (270) 
Nc1ccc2ncccc2c1

>  <path>  (270) 
/opt/xchem-fragalysis-2/maxwin/CHIKV_Mac_20240920/aligned_files/c1260c/c1260c_hippo.pdb

>  <compound>  (270) 
RJSRSRITMWVIQT-UHFFFAOYSA-N

>  <target>  (270) 
CHIKV_Mac

>  <tags>  (270) 
['[Other] Adenine site', 'hits', '[Other] fragment screen']

>  <reference>  (270) 
None

>  <exports>  (270) 
['/opt/xchem-fragalysis-2/maxwin/CHIKV_HIPPO/web_resources/hit_poses.sdf', '/opt/xchem-fragalysis-2/maxwin/CHIKV_HIPPO/web/web_resources/hit_poses.sdf', '/opt/xchem-fragalysis-2/maxwin/CHIKV_HIPPO/web2/web_resources/hit_poses.sdf']

>  <observation_longname>  (270) 
nan

>  <ConformerSites alias>  (270) 
nan

>  <CanonSites alias>  (270) 
nan

>  <CrystalformSites alias>  (270) 
nan

>  <Quatassemblies alias>  (270) 
nan

>  <Crystalforms alias>  (270) 
nan

$$$$
c1260a
     RDKit          3D

 11 12  0  0  0  0  0  0  0  0999 V2000
   22.2230   11.6920    9.8980 N   0  0  0  0  0  0  0  0  0  0  0  0
   21.0760   12.0830   10.5210 C   0  0  0  0  0  0  0  0  0  0  0  0
   21.0330   13.2610   11.2520 C   0  0  0  0  0  0  0  0  0  0  0  0
   19.8330   13.6970   11.8610 C   0  0  0  0  0  0  0  0  0  0  0  0
   18.6720   12.9010   11.7320 C   0  0  0  0  0  0  0  0  0  0  0  0
   18.7420   11.6980   10.9960 C   0  0  0  0  0  0  0  0  0  0  0  0
   19.9090   11.3120   10.4060 C   0  0  0  0  0  0  0  0  0  0  0  0
   19.7190   14.9180   12.5580 C   0  0  0  0  0  0  0  0  0  0  0  0
   18.5140   15.2910   13.0690 C   0  0  0  0  0  0  0  0  0  0  0  0
   17.4240   14.4490   12.8980 C   0  0  0  0  0  0  0  0  0  0  0  0
   17.4680   13.2880   12.2630 N   0  0  0  0  0  0  0  0  0  0  0  0
  2  1  1  0
  2  7  2  0
  7  6  1  0
  6  5  2  0
  5 11  1  0
 11 10  2  0
 10  9  1  0
  9  8  2  0
  8  4  1  0
  5  4  1  0
  4  3  2  0
  3  2  1  0
M  END
>  <id>  (271) 
6059

>  <inchikey>  (271) 
RJSRSRITMWVIQT-UHFFFAOYSA-N

>  <alias>  (271) 
c1260a

>  <smiles>  (271) 
Nc1ccc2ncccc2c1

>  <path>  (271) 
/opt/xchem-fragalysis-2/maxwin/CHIKV_Mac_20240920/aligned_files/c1260a/c1260a.pdb

>  <compound>  (271) 
RJSRSRITMWVIQT-UHFFFAOYSA-N

>  <target>  (271) 
CHIKV_Mac

>  <tags>  (271) 
['hits', '[Other] Arg144 pocket', '[Other] fragment screen']

>  <reference>  (271) 
None

>  <exports>  (271) 
['/opt/xchem-fragalysis-2/maxwin/CHIKV_HIPPO/web_resources/hit_poses.sdf', '/opt/xchem-fragalysis-2/maxwin/CHIKV_HIPPO/web/web_resources/hit_poses.sdf', '/opt/xchem-fragalysis-2/maxwin/CHIKV_HIPPO/web2/web_resources/hit_poses.sdf']

>  <observation_longname>  (271) 
nan

>  <ConformerSites alias>  (271) 
nan

>  <CanonSites alias>  (271) 
nan

>  <CrystalformSites alias>  (271) 
nan

>  <Quatassemblies alias>  (271) 
nan

>  <Crystalforms alias>  (271) 
nan

$$$$
c1268a
     RDKit          3D

  9  9  0  0  0  0  0  0  0  0999 V2000
   13.7690    8.8800    9.2010 O   0  0  0  0  0  0  0  0  0  0  0  0
   14.7980    8.9920   10.1820 S   0  0  0  0  0  0  0  0  0  0  0  0
   15.0160    7.9430   11.1260 O   0  0  0  0  0  0  0  0  0  0  0  0
   16.1660    9.2730    9.4360 N   0  0  0  0  0  0  0  0  0  0  0  0
   14.5310   10.4230   11.1150 C   0  0  0  0  0  0  0  0  0  0  0  0
   14.3930   10.4760   12.4540 N   0  0  0  0  0  0  0  0  0  0  0  0
   14.1900   11.7790   12.7960 C   0  0  0  0  0  0  0  0  0  0  0  0
   14.2150   12.4770   11.6360 C   0  0  0  0  0  0  0  0  0  0  0  0
   14.4320   11.6230   10.5790 N   0  0  0  0  0  0  0  0  0  0  0  0
  4  2  1  0
  3  2  2  0
  2  1  2  0
  5  2  1  0
  5  9  2  0
  9  8  1  0
  8  7  2  0
  7  6  1  0
  6  5  1  0
M  END
>  <id>  (272) 
6060

>  <inchikey>  (272) 
PMTLRCDQMKXMRZ-UHFFFAOYSA-N

>  <alias>  (272) 
c1268a

>  <smiles>  (272) 
NS(=O)(=O)c1ncc[nH]1

>  <path>  (272) 
/opt/xchem-fragalysis-2/maxwin/CHIKV_Mac_20240920/aligned_files/c1268a/c1268a_hippo.pdb

>  <compound>  (272) 
PMTLRCDQMKXMRZ-UHFFFAOYSA-N

>  <target>  (272) 
CHIKV_Mac

>  <tags>  (272) 
['[Other] Adenine site', 'hits', '[Other] fragment screen']

>  <reference>  (272) 
None

>  <exports>  (272) 
['/opt/xchem-fragalysis-2/maxwin/CHIKV_HIPPO/web_resources/hit_poses.sdf', '/opt/xchem-fragalysis-2/maxwin/CHIKV_HIPPO/web/web_resources/hit_poses.sdf', '/opt/xchem-fragalysis-2/maxwin/CHIKV_HIPPO/web2/web_resources/hit_poses.sdf']

>  <observation_longname>  (272) 
nan

>  <ConformerSites alias>  (272) 
nan

>  <CanonSites alias>  (272) 
nan

>  <CrystalformSites alias>  (272) 
nan

>  <Quatassemblies alias>  (272) 
nan

>  <Crystalforms alias>  (272) 
nan

$$$$
c1268b
     RDKit          3D

  9  9  0  0  0  0  0  0  0  0999 V2000
   14.1200    8.9050    9.3670 O   0  0  0  0  0  0  0  0  0  0  0  0
   15.1500    9.2020   10.3100 S   0  0  0  0  0  0  0  0  0  0  0  0
   15.5250    8.2440   11.3020 O   0  0  0  0  0  0  0  0  0  0  0  0
   16.4520    9.6310    9.5140 N   0  0  0  0  0  0  0  0  0  0  0  0
   14.6380   10.6340   11.1610 C   0  0  0  0  0  0  0  0  0  0  0  0
   14.2380   11.7830   10.5940 N   0  0  0  0  0  0  0  0  0  0  0  0
   13.8710   12.6350   11.5910 C   0  0  0  0  0  0  0  0  0  0  0  0
   14.0630   11.9580   12.7450 C   0  0  0  0  0  0  0  0  0  0  0  0
   14.5510   10.7000   12.4740 N   0  0  0  0  0  0  0  0  0  0  0  0
  4  2  1  0
  3  2  2  0
  2  1  2  0
  5  2  1  0
  5  9  2  0
  9  8  1  0
  8  7  2  0
  7  6  1  0
  6  5  1  0
M  END
>  <id>  (273) 
6061

>  <inchikey>  (273) 
PMTLRCDQMKXMRZ-UHFFFAOYSA-N

>  <alias>  (273) 
c1268b

>  <smiles>  (273) 
NS(=O)(=O)c1ncc[nH]1

>  <path>  (273) 
/opt/xchem-fragalysis-2/maxwin/CHIKV_Mac_20240920/aligned_files/c1268b/c1268b_hippo.pdb

>  <compound>  (273) 
PMTLRCDQMKXMRZ-UHFFFAOYSA-N

>  <target>  (273) 
CHIKV_Mac

>  <tags>  (273) 
['[Other] Adenine site', 'hits', '[Other] fragment screen']

>  <reference>  (273) 
None

>  <exports>  (273) 
['/opt/xchem-fragalysis-2/maxwin/CHIKV_HIPPO/web_resources/hit_poses.sdf', '/opt/xchem-fragalysis-2/maxwin/CHIKV_HIPPO/web/web_resources/hit_poses.sdf', '/opt/xchem-fragalysis-2/maxwin/CHIKV_HIPPO/web2/web_resources/hit_poses.sdf']

>  <observation_longname>  (273) 
nan

>  <ConformerSites alias>  (273) 
nan

>  <CanonSites alias>  (273) 
nan

>  <CrystalformSites alias>  (273) 
nan

>  <Quatassemblies alias>  (273) 
nan

>  <Crystalforms alias>  (273) 
nan

$$$$
c1268c
     RDKit          3D

  9  9  0  0  0  0  0  0  0  0999 V2000
   16.6200    9.5090   10.1370 O   0  0  0  0  0  0  0  0  0  0  0  0
   15.2140    9.3600   10.3290 S   0  0  0  0  0  0  0  0  0  0  0  0
   14.3270    9.3400    9.2120 O   0  0  0  0  0  0  0  0  0  0  0  0
   14.9620    8.0480   11.1830 N   0  0  0  0  0  0  0  0  0  0  0  0
   14.7640   10.6990   11.3330 C   0  0  0  0  0  0  0  0  0  0  0  0
   14.5840   10.6790   12.6690 N   0  0  0  0  0  0  0  0  0  0  0  0
   14.2500   11.9420   13.0610 C   0  0  0  0  0  0  0  0  0  0  0  0
   14.2370   12.6900   11.9300 C   0  0  0  0  0  0  0  0  0  0  0  0
   14.5620   11.9060   10.8450 N   0  0  0  0  0  0  0  0  0  0  0  0
  4  2  1  0
  3  2  2  0
  2  1  2  0
  5  2  1  0
  5  9  2  0
  9  8  1  0
  8  7  2  0
  7  6  1  0
  6  5  1  0
M  END
>  <id>  (274) 
6062

>  <inchikey>  (274) 
PMTLRCDQMKXMRZ-UHFFFAOYSA-N

>  <alias>  (274) 
c1268c

>  <smiles>  (274) 
NS(=O)(=O)c1ncc[nH]1

>  <path>  (274) 
/opt/xchem-fragalysis-2/maxwin/CHIKV_Mac_20240920/aligned_files/c1268c/c1268c_hippo.pdb

>  <compound>  (274) 
PMTLRCDQMKXMRZ-UHFFFAOYSA-N

>  <target>  (274) 
CHIKV_Mac

>  <tags>  (274) 
['[Other] Adenine site', 'hits', '[Other] fragment screen']

>  <reference>  (274) 
None

>  <exports>  (274) 
['/opt/xchem-fragalysis-2/maxwin/CHIKV_HIPPO/web_resources/hit_poses.sdf', '/opt/xchem-fragalysis-2/maxwin/CHIKV_HIPPO/web/web_resources/hit_poses.sdf', '/opt/xchem-fragalysis-2/maxwin/CHIKV_HIPPO/web2/web_resources/hit_poses.sdf']

>  <observation_longname>  (274) 
nan

>  <ConformerSites alias>  (274) 
nan

>  <CanonSites alias>  (274) 
nan

>  <CrystalformSites alias>  (274) 
nan

>  <Quatassemblies alias>  (274) 
nan

>  <Crystalforms alias>  (274) 
nan

$$$$
c1271a
     RDKit          3D

 10 11  0  0  0  0  0  0  0  0999 V2000
   14.5800   13.7750   12.0310 N   0  0  0  0  0  0  0  0  0  0  0  0
   14.5970   12.4670   11.7860 C   0  0  0  0  0  0  0  0  0  0  0  0
   14.6800   11.3200   13.1200 S   0  0  0  0  0  0  0  0  0  0  0  0
   14.7810   10.0310   11.9550 C   0  0  0  0  0  0  0  0  0  0  0  0
   14.7350   10.5590   10.6590 C   0  0  0  0  0  0  0  0  0  0  0  0
   14.6210   11.9460   10.5880 N   0  0  0  0  0  0  0  0  0  0  0  0
   14.9140    8.6640   12.1700 C   0  0  0  0  0  0  0  0  0  0  0  0
   15.0120    7.8220   11.0740 C   0  0  0  0  0  0  0  0  0  0  0  0
   14.9620    8.3340    9.7850 C   0  0  0  0  0  0  0  0  0  0  0  0
   14.8240    9.6990    9.5670 C   0  0  0  0  0  0  0  0  0  0  0  0
  2  1  1  0
  2  6  2  0
  6  5  1  0
  5 10  2  0
 10  9  1  0
  9  8  2  0
  8  7  1  0
  7  4  2  0
  5  4  1  0
  4  3  1  0
  3  2  1  0
M  END
>  <id>  (275) 
6063

>  <inchikey>  (275) 
UHGULLIUJBCTEF-UHFFFAOYSA-N

>  <alias>  (275) 
c1271a

>  <smiles>  (275) 
Nc1nc2ccccc2s1

>  <path>  (275) 
/opt/xchem-fragalysis-2/maxwin/CHIKV_Mac_20240920/aligned_files/c1271a/c1271a_hippo.pdb

>  <compound>  (275) 
UHGULLIUJBCTEF-UHFFFAOYSA-N

>  <target>  (275) 
CHIKV_Mac

>  <tags>  (275) 
['[Other] Adenine site', 'hits', '[Other] fragment screen']

>  <reference>  (275) 
None

>  <exports>  (275) 
['/opt/xchem-fragalysis-2/maxwin/CHIKV_HIPPO/web_resources/hit_poses.sdf', '/opt/xchem-fragalysis-2/maxwin/CHIKV_HIPPO/web/web_resources/hit_poses.sdf', '/opt/xchem-fragalysis-2/maxwin/CHIKV_HIPPO/web2/web_resources/hit_poses.sdf']

>  <observation_longname>  (275) 
nan

>  <ConformerSites alias>  (275) 
nan

>  <CanonSites alias>  (275) 
nan

>  <CrystalformSites alias>  (275) 
nan

>  <Quatassemblies alias>  (275) 
nan

>  <Crystalforms alias>  (275) 
nan

$$$$
c1271b
     RDKit          3D

 10 11  0  0  0  0  0  0  0  0999 V2000
   14.3780   13.7400   12.0790 N   0  0  0  0  0  0  0  0  0  0  0  0
   14.6280   12.4440   11.8540 C   0  0  0  0  0  0  0  0  0  0  0  0
   14.8180   11.3380   13.2090 S   0  0  0  0  0  0  0  0  0  0  0  0
   14.9250   10.0240   12.0740 C   0  0  0  0  0  0  0  0  0  0  0  0
   14.8410   10.5160   10.7680 C   0  0  0  0  0  0  0  0  0  0  0  0
   14.6730   11.8980   10.6660 N   0  0  0  0  0  0  0  0  0  0  0  0
   15.0440    8.6600   12.3250 C   0  0  0  0  0  0  0  0  0  0  0  0
   15.0950    7.7880   11.2490 C   0  0  0  0  0  0  0  0  0  0  0  0
   15.0220    8.2640    9.9500 C   0  0  0  0  0  0  0  0  0  0  0  0
   14.8980    9.6260    9.6970 C   0  0  0  0  0  0  0  0  0  0  0  0
  2  1  1  0
  2  6  2  0
  6  5  1  0
  5 10  2  0
 10  9  1  0
  9  8  2  0
  8  7  1  0
  7  4  2  0
  5  4  1  0
  4  3  1  0
  3  2  1  0
M  END
>  <id>  (276) 
6064

>  <inchikey>  (276) 
UHGULLIUJBCTEF-UHFFFAOYSA-N

>  <alias>  (276) 
c1271b

>  <smiles>  (276) 
Nc1nc2ccccc2s1

>  <path>  (276) 
/opt/xchem-fragalysis-2/maxwin/CHIKV_Mac_20240920/aligned_files/c1271b/c1271b_hippo.pdb

>  <compound>  (276) 
UHGULLIUJBCTEF-UHFFFAOYSA-N

>  <target>  (276) 
CHIKV_Mac

>  <tags>  (276) 
['[Other] Adenine site', 'hits', '[Other] fragment screen']

>  <reference>  (276) 
None

>  <exports>  (276) 
['/opt/xchem-fragalysis-2/maxwin/CHIKV_HIPPO/web_resources/hit_poses.sdf', '/opt/xchem-fragalysis-2/maxwin/CHIKV_HIPPO/web/web_resources/hit_poses.sdf', '/opt/xchem-fragalysis-2/maxwin/CHIKV_HIPPO/web2/web_resources/hit_poses.sdf']

>  <observation_longname>  (276) 
nan

>  <ConformerSites alias>  (276) 
nan

>  <CanonSites alias>  (276) 
nan

>  <CrystalformSites alias>  (276) 
nan

>  <Quatassemblies alias>  (276) 
nan

>  <Crystalforms alias>  (276) 
nan

$$$$
c1271c
     RDKit          3D

 10 11  0  0  0  0  0  0  0  0999 V2000
   14.4050   13.8210   11.9320 N   0  0  0  0  0  0  0  0  0  0  0  0
   14.5760   12.5150   11.7220 C   0  0  0  0  0  0  0  0  0  0  0  0
   14.6740   11.4000   13.0870 S   0  0  0  0  0  0  0  0  0  0  0  0
   14.8740   10.0950   11.9590 C   0  0  0  0  0  0  0  0  0  0  0  0
   14.8590   10.5930   10.6480 C   0  0  0  0  0  0  0  0  0  0  0  0
   14.6860   11.9720   10.5390 N   0  0  0  0  0  0  0  0  0  0  0  0
   15.0010    8.7340   12.2090 C   0  0  0  0  0  0  0  0  0  0  0  0
   15.1070    7.8630   11.1360 C   0  0  0  0  0  0  0  0  0  0  0  0
   15.0980    8.3450    9.8360 C   0  0  0  0  0  0  0  0  0  0  0  0
   14.9830    9.7070    9.5810 C   0  0  0  0  0  0  0  0  0  0  0  0
  2  1  1  0
  2  6  2  0
  6  5  1  0
  5 10  2  0
 10  9  1  0
  9  8  2  0
  8  7  1  0
  7  4  2  0
  5  4  1  0
  4  3  1  0
  3  2  1  0
M  END
>  <id>  (277) 
6065

>  <inchikey>  (277) 
UHGULLIUJBCTEF-UHFFFAOYSA-N

>  <alias>  (277) 
c1271c

>  <smiles>  (277) 
Nc1nc2ccccc2s1

>  <path>  (277) 
/opt/xchem-fragalysis-2/maxwin/CHIKV_Mac_20240920/aligned_files/c1271c/c1271c_hippo.pdb

>  <compound>  (277) 
UHGULLIUJBCTEF-UHFFFAOYSA-N

>  <target>  (277) 
CHIKV_Mac

>  <tags>  (277) 
['[Other] Adenine site', 'hits', '[Other] fragment screen']

>  <reference>  (277) 
None

>  <exports>  (277) 
['/opt/xchem-fragalysis-2/maxwin/CHIKV_HIPPO/web_resources/hit_poses.sdf', '/opt/xchem-fragalysis-2/maxwin/CHIKV_HIPPO/web/web_resources/hit_poses.sdf', '/opt/xchem-fragalysis-2/maxwin/CHIKV_HIPPO/web2/web_resources/hit_poses.sdf']

>  <observation_longname>  (277) 
nan

>  <ConformerSites alias>  (277) 
nan

>  <CanonSites alias>  (277) 
nan

>  <CrystalformSites alias>  (277) 
nan

>  <Quatassemblies alias>  (277) 
nan

>  <Crystalforms alias>  (277) 
nan

$$$$
c1271d
     RDKit          3D

 10 11  0  0  0  0  0  0  0  0999 V2000
   22.8000   12.5260    9.6040 N   0  0  0  0  0  0  0  0  0  0  0  0
   21.7130   12.7350   10.3480 C   0  0  0  0  0  0  0  0  0  0  0  0
   20.4240   11.5310   10.3910 S   0  0  0  0  0  0  0  0  0  0  0  0
   19.5190   12.5930   11.4380 C   0  0  0  0  0  0  0  0  0  0  0  0
   20.2580   13.7590   11.6850 C   0  0  0  0  0  0  0  0  0  0  0  0
   21.5020   13.8160   11.0550 N   0  0  0  0  0  0  0  0  0  0  0  0
   18.2530   12.4170   11.9870 C   0  0  0  0  0  0  0  0  0  0  0  0
   17.7310   13.4170   12.7970 C   0  0  0  0  0  0  0  0  0  0  0  0
   18.4540   14.5730   13.0490 C   0  0  0  0  0  0  0  0  0  0  0  0
   19.7170   14.7520   12.5010 C   0  0  0  0  0  0  0  0  0  0  0  0
  2  1  1  0
  2  6  2  0
  6  5  1  0
  5 10  2  0
 10  9  1  0
  9  8  2  0
  8  7  1  0
  7  4  2  0
  5  4  1  0
  4  3  1  0
  3  2  1  0
M  END
>  <id>  (278) 
6066

>  <inchikey>  (278) 
UHGULLIUJBCTEF-UHFFFAOYSA-N

>  <alias>  (278) 
c1271d

>  <smiles>  (278) 
Nc1nc2ccccc2s1

>  <path>  (278) 
/opt/xchem-fragalysis-2/maxwin/CHIKV_Mac_20240920/aligned_files/c1271d/c1271d_hippo.pdb

>  <compound>  (278) 
UHGULLIUJBCTEF-UHFFFAOYSA-N

>  <target>  (278) 
CHIKV_Mac

>  <tags>  (278) 
['hits', '[Other] Arg144 pocket', '[Other] fragment screen']

>  <reference>  (278) 
None

>  <exports>  (278) 
['/opt/xchem-fragalysis-2/maxwin/CHIKV_HIPPO/web_resources/hit_poses.sdf', '/opt/xchem-fragalysis-2/maxwin/CHIKV_HIPPO/web/web_resources/hit_poses.sdf', '/opt/xchem-fragalysis-2/maxwin/CHIKV_HIPPO/web2/web_resources/hit_poses.sdf']

>  <observation_longname>  (278) 
nan

>  <ConformerSites alias>  (278) 
nan

>  <CanonSites alias>  (278) 
nan

>  <CrystalformSites alias>  (278) 
nan

>  <Quatassemblies alias>  (278) 
nan

>  <Crystalforms alias>  (278) 
nan

$$$$
c1271f
     RDKit          3D

 10 11  0  0  0  0  0  0  0  0999 V2000
   19.7170   15.6700   14.2550 N   0  0  0  0  0  0  0  0  0  0  0  0
   19.6520   14.6670   13.3760 C   0  0  0  0  0  0  0  0  0  0  0  0
   18.0940   13.9570   12.9610 S   0  0  0  0  0  0  0  0  0  0  0  0
   18.9260   12.8390   11.9100 C   0  0  0  0  0  0  0  0  0  0  0  0
   20.3040   13.0900   11.9460 C   0  0  0  0  0  0  0  0  0  0  0  0
   20.6930   14.1330   12.7880 N   0  0  0  0  0  0  0  0  0  0  0  0
   18.4030   11.8220   11.1170 C   0  0  0  0  0  0  0  0  0  0  0  0
   19.2690   11.0630   10.3450 C   0  0  0  0  0  0  0  0  0  0  0  0
   20.6380   11.3050   10.3710 C   0  0  0  0  0  0  0  0  0  0  0  0
   21.1630   12.3110   11.1680 C   0  0  0  0  0  0  0  0  0  0  0  0
  2  1  1  0
  2  6  2  0
  6  5  1  0
  5 10  2  0
 10  9  1  0
  9  8  2  0
  8  7  1  0
  7  4  2  0
  5  4  1  0
  4  3  1  0
  3  2  1  0
M  END
>  <id>  (279) 
6067

>  <inchikey>  (279) 
UHGULLIUJBCTEF-UHFFFAOYSA-N

>  <alias>  (279) 
c1271f

>  <smiles>  (279) 
Nc1nc2ccccc2s1

>  <path>  (279) 
/opt/xchem-fragalysis-2/maxwin/CHIKV_Mac_20240920/aligned_files/c1271f/c1271f_hippo.pdb

>  <compound>  (279) 
UHGULLIUJBCTEF-UHFFFAOYSA-N

>  <target>  (279) 
CHIKV_Mac

>  <tags>  (279) 
['hits', '[Other] Arg144 pocket', '[Other] fragment screen']

>  <reference>  (279) 
None

>  <exports>  (279) 
['/opt/xchem-fragalysis-2/maxwin/CHIKV_HIPPO/web_resources/hit_poses.sdf', '/opt/xchem-fragalysis-2/maxwin/CHIKV_HIPPO/web/web_resources/hit_poses.sdf', '/opt/xchem-fragalysis-2/maxwin/CHIKV_HIPPO/web2/web_resources/hit_poses.sdf']

>  <observation_longname>  (279) 
nan

>  <ConformerSites alias>  (279) 
nan

>  <CanonSites alias>  (279) 
nan

>  <CrystalformSites alias>  (279) 
nan

>  <Quatassemblies alias>  (279) 
nan

>  <Crystalforms alias>  (279) 
nan

$$$$
c1271e
     RDKit          3D

 10 11  0  0  0  0  0  0  0  0999 V2000
   14.6050   13.7280   12.0170 N   0  0  0  0  0  0  0  0  0  0  0  0
   14.6980   12.4120   11.7800 C   0  0  0  0  0  0  0  0  0  0  0  0
   14.7660   11.2700   13.1220 S   0  0  0  0  0  0  0  0  0  0  0  0
   14.8410    9.9770   11.9700 C   0  0  0  0  0  0  0  0  0  0  0  0
   14.8080   10.4950   10.6710 C   0  0  0  0  0  0  0  0  0  0  0  0
   14.7220   11.8820   10.5890 N   0  0  0  0  0  0  0  0  0  0  0  0
   14.9890    8.6120   12.1940 C   0  0  0  0  0  0  0  0  0  0  0  0
   15.1010    7.7650   11.1060 C   0  0  0  0  0  0  0  0  0  0  0  0
   15.0620    8.2650    9.8150 C   0  0  0  0  0  0  0  0  0  0  0  0
   14.9200    9.6260    9.5860 C   0  0  0  0  0  0  0  0  0  0  0  0
  2  1  1  0
  2  6  2  0
  6  5  1  0
  5 10  2  0
 10  9  1  0
  9  8  2  0
  8  7  1  0
  7  4  2  0
  5  4  1  0
  4  3  1  0
  3  2  1  0
M  END
>  <id>  (280) 
6068

>  <inchikey>  (280) 
UHGULLIUJBCTEF-UHFFFAOYSA-N

>  <alias>  (280) 
c1271e

>  <smiles>  (280) 
Nc1nc2ccccc2s1

>  <path>  (280) 
/opt/xchem-fragalysis-2/maxwin/CHIKV_Mac_20240920/aligned_files/c1271e/c1271e_hippo.pdb

>  <compound>  (280) 
UHGULLIUJBCTEF-UHFFFAOYSA-N

>  <target>  (280) 
CHIKV_Mac

>  <tags>  (280) 
['[Other] Adenine site', 'hits', '[Other] fragment screen']

>  <reference>  (280) 
None

>  <exports>  (280) 
['/opt/xchem-fragalysis-2/maxwin/CHIKV_HIPPO/web_resources/hit_poses.sdf', '/opt/xchem-fragalysis-2/maxwin/CHIKV_HIPPO/web/web_resources/hit_poses.sdf', '/opt/xchem-fragalysis-2/maxwin/CHIKV_HIPPO/web2/web_resources/hit_poses.sdf']

>  <observation_longname>  (280) 
nan

>  <ConformerSites alias>  (280) 
nan

>  <CanonSites alias>  (280) 
nan

>  <CrystalformSites alias>  (280) 
nan

>  <Quatassemblies alias>  (280) 
nan

>  <Crystalforms alias>  (280) 
nan

$$$$
c1278a
     RDKit          3D

 13 14  0  0  0  0  0  0  0  0999 V2000
   14.5860   10.9150   15.6220 O   0  0  0  0  0  0  0  0  0  0  0  0
   14.7140   10.2820   14.6050 C   0  0  0  0  0  0  0  0  0  0  0  0
   14.9040    8.9620   14.5820 O   0  0  0  0  0  0  0  0  0  0  0  0
   13.7560    8.1470   14.9190 C   0  0  0  0  0  0  0  0  0  0  0  0
   14.6880   10.8640   13.2420 C   0  0  0  0  0  0  0  0  0  0  0  0
   14.8150   10.1700   11.9780 C   0  0  0  0  0  0  0  0  0  0  0  0
   14.7940   11.1620   10.9800 C   0  0  0  0  0  0  0  0  0  0  0  0
   14.6560   12.3840   11.5820 N   0  0  0  0  0  0  0  0  0  0  0  0
   14.5910   12.2020   12.9370 C   0  0  0  0  0  0  0  0  0  0  0  0
   14.9450    8.8490   11.5500 C   0  0  0  0  0  0  0  0  0  0  0  0
   15.0480    8.5980   10.1880 C   0  0  0  0  0  0  0  0  0  0  0  0
   15.0220    9.6680    9.2950 C   0  0  0  0  0  0  0  0  0  0  0  0
   14.8940   10.9570    9.6600 N   0  0  0  0  0  0  0  0  0  0  0  0
  4  3  1  0
  3  2  1  0
  2  1  2  0
  5  2  1  0
  5  9  2  0
  9  8  1  0
  8  7  1  0
  7 13  2  0
 13 12  1  0
 12 11  2  0
 11 10  1  0
 10  6  2  0
  6  5  1  0
  7  6  1  0
M  END
>  <id>  (281) 
6069

>  <inchikey>  (281) 
XYRUNIAHPKBUJT-UHFFFAOYSA-N

>  <alias>  (281) 
c1278a

>  <smiles>  (281) 
COC(=O)c1c[nH]c2ncccc12

>  <path>  (281) 
/opt/xchem-fragalysis-2/maxwin/CHIKV_Mac_20240920/aligned_files/c1278a/c1278a_hippo.pdb

>  <compound>  (281) 
XYRUNIAHPKBUJT-UHFFFAOYSA-N

>  <target>  (281) 
CHIKV_Mac

>  <tags>  (281) 
['[Other] Adenine site', 'hits', '[Other] fragment screen']

>  <reference>  (281) 
None

>  <exports>  (281) 
['/opt/xchem-fragalysis-2/maxwin/CHIKV_HIPPO/web_resources/hit_poses.sdf', '/opt/xchem-fragalysis-2/maxwin/CHIKV_HIPPO/web/web_resources/hit_poses.sdf', '/opt/xchem-fragalysis-2/maxwin/CHIKV_HIPPO/web2/web_resources/hit_poses.sdf']

>  <observation_longname>  (281) 
nan

>  <ConformerSites alias>  (281) 
nan

>  <CanonSites alias>  (281) 
nan

>  <CrystalformSites alias>  (281) 
nan

>  <Quatassemblies alias>  (281) 
nan

>  <Crystalforms alias>  (281) 
nan

$$$$
c1288a
     RDKit          3D

 10 11  0  0  0  0  0  0  0  0999 V2000
   14.3370   12.9080   12.0110 N   0  0  0  0  0  0  0  0  0  0  0  0
   14.4730   11.7660   11.3150 C   0  0  0  0  0  0  0  0  0  0  0  0
   14.7960   10.4710   11.9070 C   0  0  0  0  0  0  0  0  0  0  0  0
   14.7940    9.6080   10.8230 C   0  0  0  0  0  0  0  0  0  0  0  0
   14.5790   10.2940    9.6700 O   0  0  0  0  0  0  0  0  0  0  0  0
   14.3900   11.6790   10.0100 N   0  0  0  0  0  0  0  0  0  0  0  0
   14.9520    9.9430   13.1900 C   0  0  0  0  0  0  0  0  0  0  0  0
   15.1140    8.5690   13.3380 C   0  0  0  0  0  0  0  0  0  0  0  0
   15.1170    7.7290   12.2250 C   0  0  0  0  0  0  0  0  0  0  0  0
   14.9480    8.2410   10.9490 C   0  0  0  0  0  0  0  0  0  0  0  0
  2  1  1  0
  2  6  2  0
  6  5  1  0
  5  4  1  0
  4 10  2  0
 10  9  1  0
  9  8  2  0
  8  7  1  0
  7  3  2  0
  3  2  1  0
  4  3  1  0
M  END
>  <id>  (282) 
6070

>  <inchikey>  (282) 
NLMVYUBGWZWUGB-UHFFFAOYSA-N

>  <alias>  (282) 
c1288a

>  <smiles>  (282) 
Nc1noc2ccccc12

>  <path>  (282) 
/opt/xchem-fragalysis-2/maxwin/CHIKV_Mac_20240920/aligned_files/c1288a/c1288a_hippo.pdb

>  <compound>  (282) 
NLMVYUBGWZWUGB-UHFFFAOYSA-N

>  <target>  (282) 
CHIKV_Mac

>  <tags>  (282) 
['[Other] Adenine site', 'hits', '[Other] fragment screen']

>  <reference>  (282) 
None

>  <exports>  (282) 
['/opt/xchem-fragalysis-2/maxwin/CHIKV_HIPPO/web_resources/hit_poses.sdf', '/opt/xchem-fragalysis-2/maxwin/CHIKV_HIPPO/web/web_resources/hit_poses.sdf', '/opt/xchem-fragalysis-2/maxwin/CHIKV_HIPPO/web2/web_resources/hit_poses.sdf']

>  <observation_longname>  (282) 
nan

>  <ConformerSites alias>  (282) 
nan

>  <CanonSites alias>  (282) 
nan

>  <CrystalformSites alias>  (282) 
nan

>  <Quatassemblies alias>  (282) 
nan

>  <Crystalforms alias>  (282) 
nan

$$$$
c1288b
     RDKit          3D

 10 11  0  0  0  0  0  0  0  0999 V2000
   23.3720   13.0050   11.6800 N   0  0  0  0  0  0  0  0  0  0  0  0
   22.1330   13.3990   12.0100 C   0  0  0  0  0  0  0  0  0  0  0  0
   20.9010   12.8030   11.4910 C   0  0  0  0  0  0  0  0  0  0  0  0
   19.8990   13.5050   12.1430 C   0  0  0  0  0  0  0  0  0  0  0  0
   20.4330   14.4770   12.9280 O   0  0  0  0  0  0  0  0  0  0  0  0
   21.8670   14.3900   12.8260 N   0  0  0  0  0  0  0  0  0  0  0  0
   20.5540   11.7060   10.7050 C   0  0  0  0  0  0  0  0  0  0  0  0
   19.2150   11.3520   10.5940 C   0  0  0  0  0  0  0  0  0  0  0  0
   18.2270   12.0820   11.2520 C   0  0  0  0  0  0  0  0  0  0  0  0
   18.5620   13.1770   12.0370 C   0  0  0  0  0  0  0  0  0  0  0  0
  2  1  1  0
  2  6  2  0
  6  5  1  0
  5  4  1  0
  4 10  2  0
 10  9  1  0
  9  8  2  0
  8  7  1  0
  7  3  2  0
  3  2  1  0
  4  3  1  0
M  END
>  <id>  (283) 
6071

>  <inchikey>  (283) 
NLMVYUBGWZWUGB-UHFFFAOYSA-N

>  <alias>  (283) 
c1288b

>  <smiles>  (283) 
Nc1noc2ccccc12

>  <path>  (283) 
/opt/xchem-fragalysis-2/maxwin/CHIKV_Mac_20240920/aligned_files/c1288b/c1288b_hippo.pdb

>  <compound>  (283) 
NLMVYUBGWZWUGB-UHFFFAOYSA-N

>  <target>  (283) 
CHIKV_Mac

>  <tags>  (283) 
['hits', '[Other] Arg144 pocket', '[Other] fragment screen']

>  <reference>  (283) 
None

>  <exports>  (283) 
['/opt/xchem-fragalysis-2/maxwin/CHIKV_HIPPO/web_resources/hit_poses.sdf', '/opt/xchem-fragalysis-2/maxwin/CHIKV_HIPPO/web/web_resources/hit_poses.sdf', '/opt/xchem-fragalysis-2/maxwin/CHIKV_HIPPO/web2/web_resources/hit_poses.sdf']

>  <observation_longname>  (283) 
nan

>  <ConformerSites alias>  (283) 
nan

>  <CanonSites alias>  (283) 
nan

>  <CrystalformSites alias>  (283) 
nan

>  <Quatassemblies alias>  (283) 
nan

>  <Crystalforms alias>  (283) 
nan

$$$$
c1288d
     RDKit          3D

 10 11  0  0  0  0  0  0  0  0999 V2000
   14.4900   12.9180   11.7660 N   0  0  0  0  0  0  0  0  0  0  0  0
   14.6360   11.7420   11.1440 C   0  0  0  0  0  0  0  0  0  0  0  0
   14.8020   10.4630   11.8250 C   0  0  0  0  0  0  0  0  0  0  0  0
   14.9030    9.5500   10.7880 C   0  0  0  0  0  0  0  0  0  0  0  0
   14.8150   10.1830    9.5880 O   0  0  0  0  0  0  0  0  0  0  0  0
   14.6330   11.5870    9.8420 N   0  0  0  0  0  0  0  0  0  0  0  0
   14.8540    9.9990   13.1380 C   0  0  0  0  0  0  0  0  0  0  0  0
   15.0140    8.6390   13.3700 C   0  0  0  0  0  0  0  0  0  0  0  0
   15.1090    7.7430   12.3080 C   0  0  0  0  0  0  0  0  0  0  0  0
   15.0520    8.1920   10.9940 C   0  0  0  0  0  0  0  0  0  0  0  0
  2  1  1  0
  2  6  2  0
  6  5  1  0
  5  4  1  0
  4 10  2  0
 10  9  1  0
  9  8  2  0
  8  7  1  0
  7  3  2  0
  3  2  1  0
  4  3  1  0
M  END
>  <id>  (284) 
6072

>  <inchikey>  (284) 
NLMVYUBGWZWUGB-UHFFFAOYSA-N

>  <alias>  (284) 
c1288d

>  <smiles>  (284) 
Nc1noc2ccccc12

>  <path>  (284) 
/opt/xchem-fragalysis-2/maxwin/CHIKV_Mac_20240920/aligned_files/c1288d/c1288d_hippo.pdb

>  <compound>  (284) 
NLMVYUBGWZWUGB-UHFFFAOYSA-N

>  <target>  (284) 
CHIKV_Mac

>  <tags>  (284) 
['[Other] Adenine site', 'hits', '[Other] fragment screen']

>  <reference>  (284) 
None

>  <exports>  (284) 
['/opt/xchem-fragalysis-2/maxwin/CHIKV_HIPPO/web_resources/hit_poses.sdf', '/opt/xchem-fragalysis-2/maxwin/CHIKV_HIPPO/web/web_resources/hit_poses.sdf', '/opt/xchem-fragalysis-2/maxwin/CHIKV_HIPPO/web2/web_resources/hit_poses.sdf']

>  <observation_longname>  (284) 
nan

>  <ConformerSites alias>  (284) 
nan

>  <CanonSites alias>  (284) 
nan

>  <CrystalformSites alias>  (284) 
nan

>  <Quatassemblies alias>  (284) 
nan

>  <Crystalforms alias>  (284) 
nan

$$$$
c1288e
     RDKit          3D

 10 11  0  0  0  0  0  0  0  0999 V2000
   14.6650   12.9220   11.5610 N   0  0  0  0  0  0  0  0  0  0  0  0
   14.7950   11.6620   11.1270 C   0  0  0  0  0  0  0  0  0  0  0  0
   14.8310   10.4800   11.9920 C   0  0  0  0  0  0  0  0  0  0  0  0
   14.9760    9.4270   11.1010 C   0  0  0  0  0  0  0  0  0  0  0  0
   15.0290    9.8890    9.8230 O   0  0  0  0  0  0  0  0  0  0  0  0
   14.9030   11.3240    9.8670 N   0  0  0  0  0  0  0  0  0  0  0  0
   14.8680   10.2180   13.3610 C   0  0  0  0  0  0  0  0  0  0  0  0
   15.0350    8.9060   13.7930 C   0  0  0  0  0  0  0  0  0  0  0  0
   15.1530    7.8600   12.8710 C   0  0  0  0  0  0  0  0  0  0  0  0
   15.1230    8.1130   11.5060 C   0  0  0  0  0  0  0  0  0  0  0  0
  2  1  1  0
  2  6  2  0
  6  5  1  0
  5  4  1  0
  4 10  2  0
 10  9  1  0
  9  8  2  0
  8  7  1  0
  7  3  2  0
  3  2  1  0
  4  3  1  0
M  END
>  <id>  (285) 
6073

>  <inchikey>  (285) 
NLMVYUBGWZWUGB-UHFFFAOYSA-N

>  <alias>  (285) 
c1288e

>  <smiles>  (285) 
Nc1noc2ccccc12

>  <path>  (285) 
/opt/xchem-fragalysis-2/maxwin/CHIKV_Mac_20240920/aligned_files/c1288e/c1288e_hippo.pdb

>  <compound>  (285) 
NLMVYUBGWZWUGB-UHFFFAOYSA-N

>  <target>  (285) 
CHIKV_Mac

>  <tags>  (285) 
['[Other] Adenine site', 'hits', '[Other] fragment screen']

>  <reference>  (285) 
None

>  <exports>  (285) 
['/opt/xchem-fragalysis-2/maxwin/CHIKV_HIPPO/web_resources/hit_poses.sdf', '/opt/xchem-fragalysis-2/maxwin/CHIKV_HIPPO/web/web_resources/hit_poses.sdf', '/opt/xchem-fragalysis-2/maxwin/CHIKV_HIPPO/web2/web_resources/hit_poses.sdf']

>  <observation_longname>  (285) 
nan

>  <ConformerSites alias>  (285) 
nan

>  <CanonSites alias>  (285) 
nan

>  <CrystalformSites alias>  (285) 
nan

>  <Quatassemblies alias>  (285) 
nan

>  <Crystalforms alias>  (285) 
nan

$$$$
c1288f
     RDKit          3D

 10 11  0  0  0  0  0  0  0  0999 V2000
   20.3230   14.7730   13.4220 N   0  0  0  0  0  0  0  0  0  0  0  0
   20.9320   13.9050   12.6000 C   0  0  0  0  0  0  0  0  0  0  0  0
   20.2380   12.9510   11.7380 C   0  0  0  0  0  0  0  0  0  0  0  0
   21.2660   12.2850   11.0890 C   0  0  0  0  0  0  0  0  0  0  0  0
   22.4710   12.7610   11.4960 O   0  0  0  0  0  0  0  0  0  0  0  0
   22.2320   13.7960   12.4670 N   0  0  0  0  0  0  0  0  0  0  0  0
   18.9230   12.5550   11.5050 C   0  0  0  0  0  0  0  0  0  0  0  0
   18.6820   11.5140   10.6170 C   0  0  0  0  0  0  0  0  0  0  0  0
   19.7350   10.8790    9.9620 C   0  0  0  0  0  0  0  0  0  0  0  0
   21.0490   11.2570   10.1990 C   0  0  0  0  0  0  0  0  0  0  0  0
  2  1  1  0
  2  6  2  0
  6  5  1  0
  5  4  1  0
  4 10  2  0
 10  9  1  0
  9  8  2  0
  8  7  1  0
  7  3  2  0
  3  2  1  0
  4  3  1  0
M  END
>  <id>  (286) 
6074

>  <inchikey>  (286) 
NLMVYUBGWZWUGB-UHFFFAOYSA-N

>  <alias>  (286) 
c1288f

>  <smiles>  (286) 
Nc1noc2ccccc12

>  <path>  (286) 
/opt/xchem-fragalysis-2/maxwin/CHIKV_Mac_20240920/aligned_files/c1288f/c1288f_hippo.pdb

>  <compound>  (286) 
NLMVYUBGWZWUGB-UHFFFAOYSA-N

>  <target>  (286) 
CHIKV_Mac

>  <tags>  (286) 
['hits', '[Other] Arg144 pocket', '[Other] fragment screen']

>  <reference>  (286) 
None

>  <exports>  (286) 
['/opt/xchem-fragalysis-2/maxwin/CHIKV_HIPPO/web_resources/hit_poses.sdf', '/opt/xchem-fragalysis-2/maxwin/CHIKV_HIPPO/web/web_resources/hit_poses.sdf', '/opt/xchem-fragalysis-2/maxwin/CHIKV_HIPPO/web2/web_resources/hit_poses.sdf']

>  <observation_longname>  (286) 
nan

>  <ConformerSites alias>  (286) 
nan

>  <CanonSites alias>  (286) 
nan

>  <CrystalformSites alias>  (286) 
nan

>  <Quatassemblies alias>  (286) 
nan

>  <Crystalforms alias>  (286) 
nan

$$$$
c1288c
     RDKit          3D

 10 11  0  0  0  0  0  0  0  0999 V2000
   15.6760    1.4000   15.8490 N   0  0  0  0  0  0  0  0  0  0  0  0
   16.7110    1.9210   15.1850 C   0  0  0  0  0  0  0  0  0  0  0  0
   16.6300    2.5140   13.8500 C   0  0  0  0  0  0  0  0  0  0  0  0
   17.9260    2.9310   13.6010 C   0  0  0  0  0  0  0  0  0  0  0  0
   18.7420    2.5980   14.6350 O   0  0  0  0  0  0  0  0  0  0  0  0
   17.9430    1.9320   15.6310 N   0  0  0  0  0  0  0  0  0  0  0  0
   15.6410    2.8120   12.9180 C   0  0  0  0  0  0  0  0  0  0  0  0
   15.9750    3.5250   11.7710 C   0  0  0  0  0  0  0  0  0  0  0  0
   17.2810    3.9280   11.5470 C   0  0  0  0  0  0  0  0  0  0  0  0
   18.2790    3.6260   12.4590 C   0  0  0  0  0  0  0  0  0  0  0  0
  2  1  1  0
  2  6  2  0
  6  5  1  0
  5  4  1  0
  4 10  2  0
 10  9  1  0
  9  8  2  0
  8  7  1  0
  7  3  2  0
  3  2  1  0
  4  3  1  0
M  END
>  <id>  (287) 
6075

>  <inchikey>  (287) 
NLMVYUBGWZWUGB-UHFFFAOYSA-N

>  <alias>  (287) 
c1288c

>  <smiles>  (287) 
Nc1noc2ccccc12

>  <path>  (287) 
/opt/xchem-fragalysis-2/maxwin/CHIKV_Mac_20240920/aligned_files/c1288c/c1288c_hippo.pdb

>  <compound>  (287) 
NLMVYUBGWZWUGB-UHFFFAOYSA-N

>  <target>  (287) 
CHIKV_Mac

>  <tags>  (287) 
['hits', '[Other] Trp148 site', '[Other] fragment screen']

>  <reference>  (287) 
None

>  <exports>  (287) 
['/opt/xchem-fragalysis-2/maxwin/CHIKV_HIPPO/web_resources/hit_poses.sdf', '/opt/xchem-fragalysis-2/maxwin/CHIKV_HIPPO/web/web_resources/hit_poses.sdf', '/opt/xchem-fragalysis-2/maxwin/CHIKV_HIPPO/web2/web_resources/hit_poses.sdf']

>  <observation_longname>  (287) 
nan

>  <ConformerSites alias>  (287) 
nan

>  <CanonSites alias>  (287) 
nan

>  <CrystalformSites alias>  (287) 
nan

>  <Quatassemblies alias>  (287) 
nan

>  <Crystalforms alias>  (287) 
nan

$$$$
c1423a
     RDKit          3D

 11 12  0  0  0  0  0  0  0  0999 V2000
   15.6590    9.5880   11.1110 C   0  0  0  0  0  0  0  0  0  0  0  0
   15.6320   10.3230    9.9410 C   0  0  0  0  0  0  0  0  0  0  0  0
   15.0740   11.5350    9.8370 N   0  0  0  0  0  0  0  0  0  0  0  0
   14.5260   12.0460   10.9460 C   0  0  0  0  0  0  0  0  0  0  0  0
   14.5050   11.3900   12.1630 C   0  0  0  0  0  0  0  0  0  0  0  0
   15.0720   10.1230   12.2500 C   0  0  0  0  0  0  0  0  0  0  0  0
   14.9950    9.3450   13.4950 C   0  0  0  0  0  0  0  0  0  0  0  0
   14.9320    7.9920   13.5400 N   0  0  0  0  0  0  0  0  0  0  0  0
   14.8450    7.6350   14.8580 C   0  0  0  0  0  0  0  0  0  0  0  0
   14.9540    9.8640   14.7160 N   0  0  0  0  0  0  0  0  0  0  0  0
   14.8570    8.7920   15.5680 C   0  0  0  0  0  0  0  0  0  0  0  0
 11  9  2  0
  9  8  1  0
  8  7  1  0
 10  7  2  0
 11 10  1  0
  7  6  1  0
  6  5  2  0
  5  4  1  0
  4  3  2  0
  3  2  1  0
  2  1  2  0
  6  1  1  0
M  END
>  <id>  (288) 
6076

>  <inchikey>  (288) 
QWZSAEUNIBEKIZ-UHFFFAOYSA-N

>  <alias>  (288) 
c1423a

>  <smiles>  (288) 
c1cc(-c2ncc[nH]2)ccn1

>  <path>  (288) 
/opt/xchem-fragalysis-2/maxwin/CHIKV_Mac_20240920/aligned_files/c1423a/c1423a.pdb

>  <compound>  (288) 
QWZSAEUNIBEKIZ-UHFFFAOYSA-N

>  <target>  (288) 
CHIKV_Mac

>  <tags>  (288) 
['[Other] Adenine site', 'hits', '[Other] fragment screen']

>  <reference>  (288) 
None

>  <exports>  (288) 
['/opt/xchem-fragalysis-2/maxwin/CHIKV_HIPPO/web_resources/hit_poses.sdf', '/opt/xchem-fragalysis-2/maxwin/CHIKV_HIPPO/web/web_resources/hit_poses.sdf', '/opt/xchem-fragalysis-2/maxwin/CHIKV_HIPPO/web2/web_resources/hit_poses.sdf']

>  <observation_longname>  (288) 
CHIKV_MacB-x1423_C_304_1_CHIKV_MacB-x2352+C+401+1

>  <ConformerSites alias>  (288) 
1a - c2352/C/401

>  <CanonSites alias>  (288) 
1 - c2352/C/401/1

>  <CrystalformSites alias>  (288) 
F1a - c0270/A/304

>  <Quatassemblies alias>  (288) 
A1 - monomer

>  <Crystalforms alias>  (288) 
F1 - P31-4fold-NCS

$$$$
c1299c
     RDKit          3D

 13 14  0  0  0  0  0  0  0  0999 V2000
   19.6830   -8.7350    2.2830 N   0  0  0  0  0  0  0  0  0  0  0  0
   18.4080   -8.4560    2.5650 C   0  0  0  0  0  0  0  0  0  0  0  0
   17.4340   -8.5050    1.6890 N   0  0  0  0  0  0  0  0  0  0  0  0
   16.2960   -8.0600    2.3670 C   0  0  0  0  0  0  0  0  0  0  0  0
   16.6070   -7.7610    3.6920 C   0  0  0  0  0  0  0  0  0  0  0  0
   17.9900   -8.0280    3.8110 N   0  0  0  0  0  0  0  0  0  0  0  0
   18.8290   -7.8740    5.0230 C   0  0  0  0  0  0  0  0  0  0  0  0
   18.9170   -6.4210    5.4540 C   0  0  0  0  0  0  0  0  0  0  0  0
   18.3500   -8.7780    6.1450 C   0  0  0  0  0  0  0  0  0  0  0  0
   15.6530   -7.2820    4.5790 C   0  0  0  0  0  0  0  0  0  0  0  0
   14.3580   -7.0990    4.1040 C   0  0  0  0  0  0  0  0  0  0  0  0
   14.0360   -7.3850    2.7810 C   0  0  0  0  0  0  0  0  0  0  0  0
   14.9970   -7.8660    1.9010 C   0  0  0  0  0  0  0  0  0  0  0  0
  9  7  1  0
  8  7  1  0
  7  6  1  0
  6  2  1  0
  2  1  1  0
  3  2  2  0
  4  3  1  0
  4 13  2  0
 13 12  1  0
 12 11  2  0
 11 10  1  0
 10  5  2  0
  6  5  1  0
  5  4  1  0
M  END
>  <id>  (289) 
6077

>  <inchikey>  (289) 
UDJSHISPNDRJNE-UHFFFAOYSA-N

>  <alias>  (289) 
c1299c

>  <smiles>  (289) 
CC(C)n1c(N)nc2ccccc21

>  <path>  (289) 
/opt/xchem-fragalysis-2/maxwin/CHIKV_Mac_20240920/aligned_files/c1299c/c1299c_hippo.pdb

>  <compound>  (289) 
UDJSHISPNDRJNE-UHFFFAOYSA-N

>  <target>  (289) 
CHIKV_Mac

>  <tags>  (289) 
['[Other] ignore', 'hits']

>  <reference>  (289) 
None

>  <exports>  (289) 
['/opt/xchem-fragalysis-2/maxwin/CHIKV_HIPPO/web_resources/hit_poses.sdf', '/opt/xchem-fragalysis-2/maxwin/CHIKV_HIPPO/web/web_resources/hit_poses.sdf', '/opt/xchem-fragalysis-2/maxwin/CHIKV_HIPPO/web2/web_resources/hit_poses.sdf']

>  <observation_longname>  (289) 
nan

>  <ConformerSites alias>  (289) 
nan

>  <CanonSites alias>  (289) 
nan

>  <CrystalformSites alias>  (289) 
nan

>  <Quatassemblies alias>  (289) 
nan

>  <Crystalforms alias>  (289) 
nan

$$$$
c1299a
     RDKit          3D

 13 14  0  0  0  0  0  0  0  0999 V2000
   14.6040   13.7120   11.7070 N   0  0  0  0  0  0  0  0  0  0  0  0
   14.7610   12.4020   11.4980 C   0  0  0  0  0  0  0  0  0  0  0  0
   14.5840   11.8140   10.3380 N   0  0  0  0  0  0  0  0  0  0  0  0
   14.8100   10.4580   10.5730 C   0  0  0  0  0  0  0  0  0  0  0  0
   15.1350   10.2430   11.9110 C   0  0  0  0  0  0  0  0  0  0  0  0
   15.1090   11.5180   12.5010 N   0  0  0  0  0  0  0  0  0  0  0  0
   15.2240   11.8200   13.9470 C   0  0  0  0  0  0  0  0  0  0  0  0
   14.3370   10.9040   14.7730 C   0  0  0  0  0  0  0  0  0  0  0  0
   16.6720   11.7770   14.4000 C   0  0  0  0  0  0  0  0  0  0  0  0
   15.3550    8.9700   12.4220 C   0  0  0  0  0  0  0  0  0  0  0  0
   15.2340    7.8960   11.5520 C   0  0  0  0  0  0  0  0  0  0  0  0
   14.9050    8.0930   10.2130 C   0  0  0  0  0  0  0  0  0  0  0  0
   14.6980    9.3710    9.7080 C   0  0  0  0  0  0  0  0  0  0  0  0
  9  7  1  0
  8  7  1  0
  7  6  1  0
  6  2  1  0
  2  1  1  0
  3  2  2  0
  4  3  1  0
  4 13  2  0
 13 12  1  0
 12 11  2  0
 11 10  1  0
 10  5  2  0
  6  5  1  0
  5  4  1  0
M  END
>  <id>  (290) 
6078

>  <inchikey>  (290) 
UDJSHISPNDRJNE-UHFFFAOYSA-N

>  <alias>  (290) 
c1299a

>  <smiles>  (290) 
CC(C)n1c(N)nc2ccccc21

>  <path>  (290) 
/opt/xchem-fragalysis-2/maxwin/CHIKV_Mac_20240920/aligned_files/c1299a/c1299a_hippo.pdb

>  <compound>  (290) 
UDJSHISPNDRJNE-UHFFFAOYSA-N

>  <target>  (290) 
CHIKV_Mac

>  <tags>  (290) 
['[Other] Adenine site', 'hits', '[Other] fragment screen']

>  <reference>  (290) 
None

>  <exports>  (290) 
['/opt/xchem-fragalysis-2/maxwin/CHIKV_HIPPO/web_resources/hit_poses.sdf', '/opt/xchem-fragalysis-2/maxwin/CHIKV_HIPPO/web/web_resources/hit_poses.sdf', '/opt/xchem-fragalysis-2/maxwin/CHIKV_HIPPO/web2/web_resources/hit_poses.sdf']

>  <observation_longname>  (290) 
nan

>  <ConformerSites alias>  (290) 
nan

>  <CanonSites alias>  (290) 
nan

>  <CrystalformSites alias>  (290) 
nan

>  <Quatassemblies alias>  (290) 
nan

>  <Crystalforms alias>  (290) 
nan

$$$$
c1299b
     RDKit          3D

 13 14  0  0  0  0  0  0  0  0999 V2000
   15.2450   13.5800   11.8050 N   0  0  0  0  0  0  0  0  0  0  0  0
   15.1930   12.2680   11.5750 C   0  0  0  0  0  0  0  0  0  0  0  0
   14.9720   11.7340   10.3970 N   0  0  0  0  0  0  0  0  0  0  0  0
   15.0360   10.3560   10.5990 C   0  0  0  0  0  0  0  0  0  0  0  0
   15.2800   10.0730   11.9430 C   0  0  0  0  0  0  0  0  0  0  0  0
   15.3940   11.3280   12.5630 N   0  0  0  0  0  0  0  0  0  0  0  0
   15.5520   11.6040   14.0090 C   0  0  0  0  0  0  0  0  0  0  0  0
   14.4280   10.9800   14.8110 C   0  0  0  0  0  0  0  0  0  0  0  0
   16.9330   11.1860   14.5080 C   0  0  0  0  0  0  0  0  0  0  0  0
   15.3490    8.7700   12.4190 C   0  0  0  0  0  0  0  0  0  0  0  0
   15.1800    7.7380   11.5060 C   0  0  0  0  0  0  0  0  0  0  0  0
   14.9510    8.0030   10.1600 C   0  0  0  0  0  0  0  0  0  0  0  0
   14.8810    9.3100    9.6910 C   0  0  0  0  0  0  0  0  0  0  0  0
  9  7  1  0
  8  7  1  0
  7  6  1  0
  6  2  1  0
  2  1  1  0
  3  2  2  0
  4  3  1  0
  4 13  2  0
 13 12  1  0
 12 11  2  0
 11 10  1  0
 10  5  2  0
  6  5  1  0
  5  4  1  0
M  END
>  <id>  (291) 
6079

>  <inchikey>  (291) 
UDJSHISPNDRJNE-UHFFFAOYSA-N

>  <alias>  (291) 
c1299b

>  <smiles>  (291) 
CC(C)n1c(N)nc2ccccc21

>  <path>  (291) 
/opt/xchem-fragalysis-2/maxwin/CHIKV_Mac_20240920/aligned_files/c1299b/c1299b_hippo.pdb

>  <compound>  (291) 
UDJSHISPNDRJNE-UHFFFAOYSA-N

>  <target>  (291) 
CHIKV_Mac

>  <tags>  (291) 
['[Other] Adenine site', 'hits', '[Other] fragment screen']

>  <reference>  (291) 
None

>  <exports>  (291) 
['/opt/xchem-fragalysis-2/maxwin/CHIKV_HIPPO/web_resources/hit_poses.sdf', '/opt/xchem-fragalysis-2/maxwin/CHIKV_HIPPO/web/web_resources/hit_poses.sdf', '/opt/xchem-fragalysis-2/maxwin/CHIKV_HIPPO/web2/web_resources/hit_poses.sdf']

>  <observation_longname>  (291) 
nan

>  <ConformerSites alias>  (291) 
nan

>  <CanonSites alias>  (291) 
nan

>  <CrystalformSites alias>  (291) 
nan

>  <Quatassemblies alias>  (291) 
nan

>  <Crystalforms alias>  (291) 
nan

$$$$
c1305a
     RDKit          3D

 10 11  0  0  0  0  0  0  0  0999 V2000
   14.9840   11.1160   15.0550 O   0  0  0  0  0  0  0  0  0  0  0  0
   14.8630   11.1480   13.6980 C   0  0  0  0  0  0  0  0  0  0  0  0
   15.3360   10.0640   12.9680 C   0  0  0  0  0  0  0  0  0  0  0  0
   15.2730   10.1300   11.5960 C   0  0  0  0  0  0  0  0  0  0  0  0
   15.7800    9.2390   10.6760 O   0  0  0  0  0  0  0  0  0  0  0  0
   15.4200    9.7630    9.3980 C   0  0  0  0  0  0  0  0  0  0  0  0
   14.7960   11.0380    9.5910 O   0  0  0  0  0  0  0  0  0  0  0  0
   14.7350   11.2150   10.9570 C   0  0  0  0  0  0  0  0  0  0  0  0
   14.2440   12.2950   11.6650 C   0  0  0  0  0  0  0  0  0  0  0  0
   14.3200   12.2610   13.0500 C   0  0  0  0  0  0  0  0  0  0  0  0
  2  1  1  0
  2 10  2  0
 10  9  1  0
  9  8  2  0
  8  7  1  0
  7  6  1  0
  6  5  1  0
  5  4  1  0
  8  4  1  0
  4  3  2  0
  3  2  1  0
M  END
>  <id>  (292) 
6080

>  <inchikey>  (292) 
LUSZGTFNYDARNI-UHFFFAOYSA-N

>  <alias>  (292) 
c1305a

>  <smiles>  (292) 
Oc1ccc2c(c1)OCO2

>  <path>  (292) 
/opt/xchem-fragalysis-2/maxwin/CHIKV_Mac_20240920/aligned_files/c1305a/c1305a_hippo.pdb

>  <compound>  (292) 
LUSZGTFNYDARNI-UHFFFAOYSA-N

>  <target>  (292) 
CHIKV_Mac

>  <tags>  (292) 
['[Other] Adenine site', 'hits', '[Other] fragment screen']

>  <reference>  (292) 
None

>  <exports>  (292) 
['/opt/xchem-fragalysis-2/maxwin/CHIKV_HIPPO/web_resources/hit_poses.sdf', '/opt/xchem-fragalysis-2/maxwin/CHIKV_HIPPO/web/web_resources/hit_poses.sdf', '/opt/xchem-fragalysis-2/maxwin/CHIKV_HIPPO/web2/web_resources/hit_poses.sdf']

>  <observation_longname>  (292) 
nan

>  <ConformerSites alias>  (292) 
nan

>  <CanonSites alias>  (292) 
nan

>  <CrystalformSites alias>  (292) 
nan

>  <Quatassemblies alias>  (292) 
nan

>  <Crystalforms alias>  (292) 
nan

$$$$
c1305b
     RDKit          3D

 10 11  0  0  0  0  0  0  0  0999 V2000
   22.6440   11.6550   10.2700 O   0  0  0  0  0  0  0  0  0  0  0  0
   21.3800   12.0130   10.6330 C   0  0  0  0  0  0  0  0  0  0  0  0
   21.1890   13.1890   11.3480 C   0  0  0  0  0  0  0  0  0  0  0  0
   19.9050   13.5170   11.7240 C   0  0  0  0  0  0  0  0  0  0  0  0
   19.4620   14.6670   12.3370 O   0  0  0  0  0  0  0  0  0  0  0  0
   18.0580   14.4790   12.5340 C   0  0  0  0  0  0  0  0  0  0  0  0
   17.6740   13.2530   11.9030 O   0  0  0  0  0  0  0  0  0  0  0  0
   18.8430   12.7040   11.4220 C   0  0  0  0  0  0  0  0  0  0  0  0
   19.0170   11.5290   10.7190 C   0  0  0  0  0  0  0  0  0  0  0  0
   20.2970   11.1900   10.3110 C   0  0  0  0  0  0  0  0  0  0  0  0
  2  1  1  0
  2 10  2  0
 10  9  1  0
  9  8  2  0
  8  7  1  0
  7  6  1  0
  6  5  1  0
  5  4  1  0
  8  4  1  0
  4  3  2  0
  3  2  1  0
M  END
>  <id>  (293) 
6081

>  <inchikey>  (293) 
LUSZGTFNYDARNI-UHFFFAOYSA-N

>  <alias>  (293) 
c1305b

>  <smiles>  (293) 
Oc1ccc2c(c1)OCO2

>  <path>  (293) 
/opt/xchem-fragalysis-2/maxwin/CHIKV_Mac_20240920/aligned_files/c1305b/c1305b_hippo.pdb

>  <compound>  (293) 
LUSZGTFNYDARNI-UHFFFAOYSA-N

>  <target>  (293) 
CHIKV_Mac

>  <tags>  (293) 
['hits', '[Other] Arg144 pocket', '[Other] fragment screen']

>  <reference>  (293) 
None

>  <exports>  (293) 
['/opt/xchem-fragalysis-2/maxwin/CHIKV_HIPPO/web_resources/hit_poses.sdf', '/opt/xchem-fragalysis-2/maxwin/CHIKV_HIPPO/web/web_resources/hit_poses.sdf', '/opt/xchem-fragalysis-2/maxwin/CHIKV_HIPPO/web2/web_resources/hit_poses.sdf']

>  <observation_longname>  (293) 
CHIKV_MacB-x1305_A_305_1_CHIKV_MacB-x2352+C+401+1

>  <ConformerSites alias>  (293) 
1a - c2352/C/401

>  <CanonSites alias>  (293) 
1 - c2352/C/401/1

>  <CrystalformSites alias>  (293) 
F1a - c0270/A/304

>  <Quatassemblies alias>  (293) 
A1 - monomer

>  <Crystalforms alias>  (293) 
F1 - P31-4fold-NCS

$$$$
c1305c
     RDKit          3D

 10 11  0  0  0  0  0  0  0  0999 V2000
   14.7460   10.9770   14.9760 O   0  0  0  0  0  0  0  0  0  0  0  0
   14.6710   11.1080   13.6210 C   0  0  0  0  0  0  0  0  0  0  0  0
   15.0230   10.0200   12.8320 C   0  0  0  0  0  0  0  0  0  0  0  0
   14.9400   10.1580   11.4640 C   0  0  0  0  0  0  0  0  0  0  0  0
   15.3420    9.2700   10.4920 O   0  0  0  0  0  0  0  0  0  0  0  0
   15.0130    9.8900    9.2480 C   0  0  0  0  0  0  0  0  0  0  0  0
   14.5050   11.2000    9.5150 O   0  0  0  0  0  0  0  0  0  0  0  0
   14.4940   11.3190   10.8870 C   0  0  0  0  0  0  0  0  0  0  0  0
   14.1260   12.4050   11.6570 C   0  0  0  0  0  0  0  0  0  0  0  0
   14.2300   12.2990   13.0350 C   0  0  0  0  0  0  0  0  0  0  0  0
  2  1  1  0
  2 10  2  0
 10  9  1  0
  9  8  2  0
  8  7  1  0
  7  6  1  0
  6  5  1  0
  5  4  1  0
  8  4  1  0
  4  3  2  0
  3  2  1  0
M  END
>  <id>  (294) 
6082

>  <inchikey>  (294) 
LUSZGTFNYDARNI-UHFFFAOYSA-N

>  <alias>  (294) 
c1305c

>  <smiles>  (294) 
Oc1ccc2c(c1)OCO2

>  <path>  (294) 
/opt/xchem-fragalysis-2/maxwin/CHIKV_Mac_20240920/aligned_files/c1305c/c1305c_hippo.pdb

>  <compound>  (294) 
LUSZGTFNYDARNI-UHFFFAOYSA-N

>  <target>  (294) 
CHIKV_Mac

>  <tags>  (294) 
['[Other] Adenine site', 'hits', '[Other] fragment screen']

>  <reference>  (294) 
None

>  <exports>  (294) 
['/opt/xchem-fragalysis-2/maxwin/CHIKV_HIPPO/web_resources/hit_poses.sdf', '/opt/xchem-fragalysis-2/maxwin/CHIKV_HIPPO/web/web_resources/hit_poses.sdf', '/opt/xchem-fragalysis-2/maxwin/CHIKV_HIPPO/web2/web_resources/hit_poses.sdf']

>  <observation_longname>  (294) 
nan

>  <ConformerSites alias>  (294) 
nan

>  <CanonSites alias>  (294) 
nan

>  <CrystalformSites alias>  (294) 
nan

>  <Quatassemblies alias>  (294) 
nan

>  <Crystalforms alias>  (294) 
nan

$$$$
c1305d
     RDKit          3D

 10 11  0  0  0  0  0  0  0  0999 V2000
   14.5750   10.9950   14.9900 O   0  0  0  0  0  0  0  0  0  0  0  0
   14.6840   11.0460   13.6330 C   0  0  0  0  0  0  0  0  0  0  0  0
   15.3290   10.0000   12.9870 C   0  0  0  0  0  0  0  0  0  0  0  0
   15.4590   10.0630   11.6210 C   0  0  0  0  0  0  0  0  0  0  0  0
   16.0540    9.1530   10.7760 O   0  0  0  0  0  0  0  0  0  0  0  0
   15.9300    9.7070    9.4660 C   0  0  0  0  0  0  0  0  0  0  0  0
   15.2320   10.9500    9.5640 O   0  0  0  0  0  0  0  0  0  0  0  0
   14.9640   11.1230   10.9030 C   0  0  0  0  0  0  0  0  0  0  0  0
   14.3080   12.1680   11.5250 C   0  0  0  0  0  0  0  0  0  0  0  0
   14.1710   12.1240   12.9050 C   0  0  0  0  0  0  0  0  0  0  0  0
  2  1  1  0
  2 10  2  0
 10  9  1  0
  9  8  2  0
  8  7  1  0
  7  6  1  0
  6  5  1  0
  5  4  1  0
  8  4  1  0
  4  3  2  0
  3  2  1  0
M  END
>  <id>  (295) 
6083

>  <inchikey>  (295) 
LUSZGTFNYDARNI-UHFFFAOYSA-N

>  <alias>  (295) 
c1305d

>  <smiles>  (295) 
Oc1ccc2c(c1)OCO2

>  <path>  (295) 
/opt/xchem-fragalysis-2/maxwin/CHIKV_Mac_20240920/aligned_files/c1305d/c1305d_hippo.pdb

>  <compound>  (295) 
LUSZGTFNYDARNI-UHFFFAOYSA-N

>  <target>  (295) 
CHIKV_Mac

>  <tags>  (295) 
['[Other] Adenine site', 'hits', '[Other] fragment screen']

>  <reference>  (295) 
None

>  <exports>  (295) 
['/opt/xchem-fragalysis-2/maxwin/CHIKV_HIPPO/web_resources/hit_poses.sdf', '/opt/xchem-fragalysis-2/maxwin/CHIKV_HIPPO/web/web_resources/hit_poses.sdf', '/opt/xchem-fragalysis-2/maxwin/CHIKV_HIPPO/web2/web_resources/hit_poses.sdf']

>  <observation_longname>  (295) 
nan

>  <ConformerSites alias>  (295) 
nan

>  <CanonSites alias>  (295) 
nan

>  <CrystalformSites alias>  (295) 
nan

>  <Quatassemblies alias>  (295) 
nan

>  <Crystalforms alias>  (295) 
nan

$$$$
c1305e
     RDKit          3D

 10 11  0  0  0  0  0  0  0  0999 V2000
   14.9350   10.5130   15.5010 O   0  0  0  0  0  0  0  0  0  0  0  0
   14.8610   10.7830   14.1680 C   0  0  0  0  0  0  0  0  0  0  0  0
   15.2840    9.8080   13.2740 C   0  0  0  0  0  0  0  0  0  0  0  0
   15.2720   10.1090   11.9320 C   0  0  0  0  0  0  0  0  0  0  0  0
   15.6220    9.3020   10.8730 O   0  0  0  0  0  0  0  0  0  0  0  0
   15.4480   10.1060    9.7050 C   0  0  0  0  0  0  0  0  0  0  0  0
   14.9550   11.3850   10.1070 O   0  0  0  0  0  0  0  0  0  0  0  0
   14.8530   11.3320   11.4780 C   0  0  0  0  0  0  0  0  0  0  0  0
   14.4120   12.3060   12.3510 C   0  0  0  0  0  0  0  0  0  0  0  0
   14.4150   12.0250   13.7080 C   0  0  0  0  0  0  0  0  0  0  0  0
  2  1  1  0
  2 10  2  0
 10  9  1  0
  9  8  2  0
  8  7  1  0
  7  6  1  0
  6  5  1  0
  5  4  1  0
  8  4  1  0
  4  3  2  0
  3  2  1  0
M  END
>  <id>  (296) 
6084

>  <inchikey>  (296) 
LUSZGTFNYDARNI-UHFFFAOYSA-N

>  <alias>  (296) 
c1305e

>  <smiles>  (296) 
Oc1ccc2c(c1)OCO2

>  <path>  (296) 
/opt/xchem-fragalysis-2/maxwin/CHIKV_Mac_20240920/aligned_files/c1305e/c1305e_hippo.pdb

>  <compound>  (296) 
LUSZGTFNYDARNI-UHFFFAOYSA-N

>  <target>  (296) 
CHIKV_Mac

>  <tags>  (296) 
['[Other] Adenine site', 'hits', '[Other] fragment screen']

>  <reference>  (296) 
None

>  <exports>  (296) 
['/opt/xchem-fragalysis-2/maxwin/CHIKV_HIPPO/web_resources/hit_poses.sdf', '/opt/xchem-fragalysis-2/maxwin/CHIKV_HIPPO/web/web_resources/hit_poses.sdf', '/opt/xchem-fragalysis-2/maxwin/CHIKV_HIPPO/web2/web_resources/hit_poses.sdf']

>  <observation_longname>  (296) 
CHIKV_MacB-x1305_D_306_1_CHIKV_MacB-x2352+C+401+1

>  <ConformerSites alias>  (296) 
1a - c2352/C/401

>  <CanonSites alias>  (296) 
1 - c2352/C/401/1

>  <CrystalformSites alias>  (296) 
F1a - c0270/A/304

>  <Quatassemblies alias>  (296) 
A1 - monomer

>  <Crystalforms alias>  (296) 
F1 - P31-4fold-NCS

$$$$
c1315a
     RDKit          3D

 13 13  0  0  0  0  0  0  0  0999 V2000
   17.3030   -3.9540   19.9100 Cl  0  0  0  0  0  0  0  0  0  0  0  0
   16.9260   -2.6080   18.8770 C   0  0  0  0  0  0  0  0  0  0  0  0
   17.8190   -2.2390   17.8990 C   0  0  0  0  0  0  0  0  0  0  0  0
   17.5110   -1.1780   17.0720 C   0  0  0  0  0  0  0  0  0  0  0  0
   15.7390   -1.9360   19.0540 C   0  0  0  0  0  0  0  0  0  0  0  0
   15.4320   -0.8790   18.2190 C   0  0  0  0  0  0  0  0  0  0  0  0
   16.3070   -0.4950   17.2110 C   0  0  0  0  0  0  0  0  0  0  0  0
   15.9450    0.5900   16.2520 C   0  0  0  0  0  0  0  0  0  0  0  0
   14.7990    0.6860   15.8140 O   0  0  0  0  0  0  0  0  0  0  0  0
   16.9280    1.4240   15.9070 N   0  0  0  0  0  0  0  0  0  0  0  0
   16.8350    2.3530   14.7940 C   0  0  0  0  0  0  0  0  0  0  0  0
   16.9330    3.7700   15.2790 C   0  0  0  0  0  0  0  0  0  0  0  0
   15.7660    4.0970   16.0160 O   0  0  0  0  0  0  0  0  0  0  0  0
 13 12  1  0
 12 11  1  0
 11 10  1  0
 10  8  1  0
  9  8  2  0
  8  7  1  0
  7  4  2  0
  4  3  1  0
  3  2  2  0
  2  1  1  0
  5  2  1  0
  6  5  2  0
  7  6  1  0
M  END
>  <id>  (297) 
6085

>  <inchikey>  (297) 
GBARCMIFTACERW-UHFFFAOYSA-N

>  <alias>  (297) 
c1315a

>  <smiles>  (297) 
O=C(NCCO)c1ccc(Cl)cc1

>  <path>  (297) 
/opt/xchem-fragalysis-2/maxwin/CHIKV_Mac_20240920/aligned_files/c1315a/c1315a_hippo.pdb

>  <compound>  (297) 
GBARCMIFTACERW-UHFFFAOYSA-N

>  <target>  (297) 
CHIKV_Mac

>  <tags>  (297) 
['hits', '[Other] Trp148 site', '[Other] fragment screen']

>  <reference>  (297) 
None

>  <exports>  (297) 
['/opt/xchem-fragalysis-2/maxwin/CHIKV_HIPPO/web_resources/hit_poses.sdf', '/opt/xchem-fragalysis-2/maxwin/CHIKV_HIPPO/web/web_resources/hit_poses.sdf', '/opt/xchem-fragalysis-2/maxwin/CHIKV_HIPPO/web2/web_resources/hit_poses.sdf']

>  <observation_longname>  (297) 
nan

>  <ConformerSites alias>  (297) 
nan

>  <CanonSites alias>  (297) 
nan

>  <CrystalformSites alias>  (297) 
nan

>  <Quatassemblies alias>  (297) 
nan

>  <Crystalforms alias>  (297) 
nan

$$$$
c1315b
     RDKit          3D

 13 13  0  0  0  0  0  0  0  0999 V2000
   16.9830   -3.8200   20.0490 Cl  0  0  0  0  0  0  0  0  0  0  0  0
   16.5700   -2.5050   18.9870 C   0  0  0  0  0  0  0  0  0  0  0  0
   17.3660   -2.2480   17.8930 C   0  0  0  0  0  0  0  0  0  0  0  0
   17.0570   -1.1800   17.0700 C   0  0  0  0  0  0  0  0  0  0  0  0
   15.4690   -1.7260   19.2710 C   0  0  0  0  0  0  0  0  0  0  0  0
   15.1620   -0.6640   18.4410 C   0  0  0  0  0  0  0  0  0  0  0  0
   15.9540   -0.3740   17.3320 C   0  0  0  0  0  0  0  0  0  0  0  0
   15.6240    0.7880   16.4510 C   0  0  0  0  0  0  0  0  0  0  0  0
   14.4980    0.9190   15.9760 O   0  0  0  0  0  0  0  0  0  0  0  0
   16.6050    1.6660   16.2210 N   0  0  0  0  0  0  0  0  0  0  0  0
   16.9770    2.0940   14.8800 C   0  0  0  0  0  0  0  0  0  0  0  0
   16.3730    3.4300   14.5440 C   0  0  0  0  0  0  0  0  0  0  0  0
   15.8110    4.0420   15.6900 O   0  0  0  0  0  0  0  0  0  0  0  0
 13 12  1  0
 12 11  1  0
 11 10  1  0
 10  8  1  0
  9  8  2  0
  8  7  1  0
  7  4  2  0
  4  3  1  0
  3  2  2  0
  2  1  1  0
  5  2  1  0
  6  5  2  0
  7  6  1  0
M  END
>  <id>  (298) 
6086

>  <inchikey>  (298) 
GBARCMIFTACERW-UHFFFAOYSA-N

>  <alias>  (298) 
c1315b

>  <smiles>  (298) 
O=C(NCCO)c1ccc(Cl)cc1

>  <path>  (298) 
/opt/xchem-fragalysis-2/maxwin/CHIKV_Mac_20240920/aligned_files/c1315b/c1315b_hippo.pdb

>  <compound>  (298) 
GBARCMIFTACERW-UHFFFAOYSA-N

>  <target>  (298) 
CHIKV_Mac

>  <tags>  (298) 
['hits', '[Other] Trp148 site', '[Other] fragment screen']

>  <reference>  (298) 
None

>  <exports>  (298) 
['/opt/xchem-fragalysis-2/maxwin/CHIKV_HIPPO/web_resources/hit_poses.sdf', '/opt/xchem-fragalysis-2/maxwin/CHIKV_HIPPO/web/web_resources/hit_poses.sdf', '/opt/xchem-fragalysis-2/maxwin/CHIKV_HIPPO/web2/web_resources/hit_poses.sdf']

>  <observation_longname>  (298) 
nan

>  <ConformerSites alias>  (298) 
nan

>  <CanonSites alias>  (298) 
nan

>  <CrystalformSites alias>  (298) 
nan

>  <Quatassemblies alias>  (298) 
nan

>  <Crystalforms alias>  (298) 
nan

$$$$
c1316c
     RDKit          3D

 11 11  0  0  0  0  0  0  0  0999 V2000
   -5.9600   12.7820   -6.4230 O   0  0  0  0  0  0  0  0  0  0  0  0
   -5.1970   12.7760   -5.4860 C   0  0  0  0  0  0  0  0  0  0  0  0
   -4.0270   13.4150   -5.4940 O   0  0  0  0  0  0  0  0  0  0  0  0
   -3.8150   14.3490   -6.5820 C   0  0  0  0  0  0  0  0  0  0  0  0
   -5.4450   12.0550   -4.2010 C   0  0  0  0  0  0  0  0  0  0  0  0
   -6.7260   11.6150   -3.8710 C   0  0  0  0  0  0  0  0  0  0  0  0
   -6.9520   10.8970   -2.7080 C   0  0  0  0  0  0  0  0  0  0  0  0
   -5.8930   10.6110   -1.8510 C   0  0  0  0  0  0  0  0  0  0  0  0
   -6.0860    9.8540   -0.7340 O   0  0  0  0  0  0  0  0  0  0  0  0
   -4.6180   11.0710   -2.1550 C   0  0  0  0  0  0  0  0  0  0  0  0
   -4.3990   11.7800   -3.3200 C   0  0  0  0  0  0  0  0  0  0  0  0
  4  3  1  0
  3  2  1  0
  2  1  2  0
  5  2  1  0
  5 11  2  0
 11 10  1  0
 10  8  2  0
  9  8  1  0
  8  7  1  0
  7  6  2  0
  6  5  1  0
M  END
>  <id>  (299) 
6087

>  <inchikey>  (299) 
LXCFILQKKLGQFO-UHFFFAOYSA-N

>  <alias>  (299) 
c1316c

>  <smiles>  (299) 
COC(=O)c1ccc(O)cc1

>  <path>  (299) 
/opt/xchem-fragalysis-2/maxwin/CHIKV_Mac_20240920/aligned_files/c1316c/c1316c_hippo.pdb

>  <compound>  (299) 
LXCFILQKKLGQFO-UHFFFAOYSA-N

>  <target>  (299) 
CHIKV_Mac

>  <tags>  (299) 
['[Other] ignore', 'hits']

>  <reference>  (299) 
None

>  <exports>  (299) 
['/opt/xchem-fragalysis-2/maxwin/CHIKV_HIPPO/web_resources/hit_poses.sdf', '/opt/xchem-fragalysis-2/maxwin/CHIKV_HIPPO/web/web_resources/hit_poses.sdf', '/opt/xchem-fragalysis-2/maxwin/CHIKV_HIPPO/web2/web_resources/hit_poses.sdf']

>  <observation_longname>  (299) 
CHIKV_MacB-x1316_C_304_1_CHIKV_MacB-x1316+C+304+1

>  <ConformerSites alias>  (299) 
12a - c1316/C/304

>  <CanonSites alias>  (299) 
12 - c1316/C/304/1

>  <CrystalformSites alias>  (299) 
F1l - c1316/C/304

>  <Quatassemblies alias>  (299) 
A1 - monomer

>  <Crystalforms alias>  (299) 
F1 - P31-4fold-NCS

$$$$
c1316a
     RDKit          3D

 11 11  0  0  0  0  0  0  0  0999 V2000
   14.2480   11.4230    9.8840 O   0  0  0  0  0  0  0  0  0  0  0  0
   14.5340   10.7670   10.8570 C   0  0  0  0  0  0  0  0  0  0  0  0
   14.7500    9.4550   10.8200 O   0  0  0  0  0  0  0  0  0  0  0  0
   14.7260    8.8320    9.5080 C   0  0  0  0  0  0  0  0  0  0  0  0
   14.6730   11.3260   12.2290 C   0  0  0  0  0  0  0  0  0  0  0  0
   14.9800   10.5270   13.3350 C   0  0  0  0  0  0  0  0  0  0  0  0
   15.0830   11.0790   14.6000 C   0  0  0  0  0  0  0  0  0  0  0  0
   14.8910   12.4450   14.7770 C   0  0  0  0  0  0  0  0  0  0  0  0
   15.0090   13.0440   16.0000 O   0  0  0  0  0  0  0  0  0  0  0  0
   14.5880   13.2460   13.6880 C   0  0  0  0  0  0  0  0  0  0  0  0
   14.4790   12.6910   12.4270 C   0  0  0  0  0  0  0  0  0  0  0  0
  4  3  1  0
  3  2  1  0
  2  1  2  0
  5  2  1  0
  5 11  2  0
 11 10  1  0
 10  8  2  0
  9  8  1  0
  8  7  1  0
  7  6  2  0
  6  5  1  0
M  END
>  <id>  (300) 
6088

>  <inchikey>  (300) 
LXCFILQKKLGQFO-UHFFFAOYSA-N

>  <alias>  (300) 
c1316a

>  <smiles>  (300) 
COC(=O)c1ccc(O)cc1

>  <path>  (300) 
/opt/xchem-fragalysis-2/maxwin/CHIKV_Mac_20240920/aligned_files/c1316a/c1316a_hippo.pdb

>  <compound>  (300) 
LXCFILQKKLGQFO-UHFFFAOYSA-N

>  <target>  (300) 
CHIKV_Mac

>  <tags>  (300) 
['[Other] Adenine site', 'hits', '[Other] fragment screen']

>  <reference>  (300) 
None

>  <exports>  (300) 
['/opt/xchem-fragalysis-2/maxwin/CHIKV_HIPPO/web_resources/hit_poses.sdf', '/opt/xchem-fragalysis-2/maxwin/CHIKV_HIPPO/web/web_resources/hit_poses.sdf', '/opt/xchem-fragalysis-2/maxwin/CHIKV_HIPPO/web2/web_resources/hit_poses.sdf']

>  <observation_longname>  (300) 
nan

>  <ConformerSites alias>  (300) 
nan

>  <CanonSites alias>  (300) 
nan

>  <CrystalformSites alias>  (300) 
nan

>  <Quatassemblies alias>  (300) 
nan

>  <Crystalforms alias>  (300) 
nan

$$$$
c1316b
     RDKit          3D

 11 11  0  0  0  0  0  0  0  0999 V2000
   15.1330   10.6030    9.3740 O   0  0  0  0  0  0  0  0  0  0  0  0
   14.8860   10.1830   10.4840 C   0  0  0  0  0  0  0  0  0  0  0  0
   14.6880    8.8920   10.7550 O   0  0  0  0  0  0  0  0  0  0  0  0
   14.1590    8.0870    9.6750 C   0  0  0  0  0  0  0  0  0  0  0  0
   14.7850   11.0340   11.7040 C   0  0  0  0  0  0  0  0  0  0  0  0
   14.9660   10.4970   12.9800 C   0  0  0  0  0  0  0  0  0  0  0  0
   14.9320   11.3050   14.1020 C   0  0  0  0  0  0  0  0  0  0  0  0
   14.7240   12.6700   13.9650 C   0  0  0  0  0  0  0  0  0  0  0  0
   14.7470   13.4760   15.0650 O   0  0  0  0  0  0  0  0  0  0  0  0
   14.5250   13.2160   12.7020 C   0  0  0  0  0  0  0  0  0  0  0  0
   14.5480   12.3970   11.5840 C   0  0  0  0  0  0  0  0  0  0  0  0
  4  3  1  0
  3  2  1  0
  2  1  2  0
  5  2  1  0
  5 11  2  0
 11 10  1  0
 10  8  2  0
  9  8  1  0
  8  7  1  0
  7  6  2  0
  6  5  1  0
M  END
>  <id>  (301) 
6089

>  <inchikey>  (301) 
LXCFILQKKLGQFO-UHFFFAOYSA-N

>  <alias>  (301) 
c1316b

>  <smiles>  (301) 
COC(=O)c1ccc(O)cc1

>  <path>  (301) 
/opt/xchem-fragalysis-2/maxwin/CHIKV_Mac_20240920/aligned_files/c1316b/c1316b_hippo.pdb

>  <compound>  (301) 
LXCFILQKKLGQFO-UHFFFAOYSA-N

>  <target>  (301) 
CHIKV_Mac

>  <tags>  (301) 
['[Other] Adenine site', 'hits', '[Other] fragment screen']

>  <reference>  (301) 
None

>  <exports>  (301) 
['/opt/xchem-fragalysis-2/maxwin/CHIKV_HIPPO/web_resources/hit_poses.sdf', '/opt/xchem-fragalysis-2/maxwin/CHIKV_HIPPO/web/web_resources/hit_poses.sdf', '/opt/xchem-fragalysis-2/maxwin/CHIKV_HIPPO/web2/web_resources/hit_poses.sdf']

>  <observation_longname>  (301) 
CHIKV_MacB-x1316_D_306_1_CHIKV_MacB-x2352+C+401+1

>  <ConformerSites alias>  (301) 
1a - c2352/C/401

>  <CanonSites alias>  (301) 
1 - c2352/C/401/1

>  <CrystalformSites alias>  (301) 
F1a - c0270/A/304

>  <Quatassemblies alias>  (301) 
A1 - monomer

>  <Crystalforms alias>  (301) 
F1 - P31-4fold-NCS

$$$$
c1331b
     RDKit          3D

 11 12  0  0  0  0  0  0  0  0999 V2000
    3.3680   24.2500    4.2830 O   0  0  0  0  0  0  0  0  0  0  0  0
    4.5680   24.1450    4.6420 C   0  0  0  0  0  0  0  0  0  0  0  0
    5.1290   24.4760    6.0140 C   0  0  0  0  0  0  0  0  0  0  0  0
    4.5590   24.8640    7.0460 O   0  0  0  0  0  0  0  0  0  0  0  0
    5.7050   23.6770    3.9070 C   0  0  0  0  0  0  0  0  0  0  0  0
    6.8590   23.7190    4.7120 C   0  0  0  0  0  0  0  0  0  0  0  0
    6.4990   24.2000    5.9620 N   0  0  0  0  0  0  0  0  0  0  0  0
    5.8150   23.1860    2.6100 C   0  0  0  0  0  0  0  0  0  0  0  0
    7.0430   22.7420    2.1470 C   0  0  0  0  0  0  0  0  0  0  0  0
    8.1680   22.7900    2.9550 C   0  0  0  0  0  0  0  0  0  0  0  0
    8.0910   23.2850    4.2460 C   0  0  0  0  0  0  0  0  0  0  0  0
  4  3  2  0
  3  7  1  0
  7  6  1  0
  6 11  2  0
 11 10  1  0
 10  9  2  0
  9  8  1  0
  8  5  2  0
  6  5  1  0
  5  2  1  0
  3  2  1  0
  2  1  2  0
M  END
>  <id>  (302) 
6090

>  <inchikey>  (302) 
JXDYKVIHCLTXOP-UHFFFAOYSA-N

>  <alias>  (302) 
c1331b

>  <smiles>  (302) 
O=C1Nc2ccccc2C1=O

>  <path>  (302) 
/opt/xchem-fragalysis-2/maxwin/CHIKV_Mac_20240920/aligned_files/c1331b/c1331b_hippo.pdb

>  <compound>  (302) 
JXDYKVIHCLTXOP-UHFFFAOYSA-N

>  <target>  (302) 
CHIKV_Mac

>  <tags>  (302) 
['[Other] ignore', 'hits']

>  <reference>  (302) 
None

>  <exports>  (302) 
['/opt/xchem-fragalysis-2/maxwin/CHIKV_HIPPO/web_resources/hit_poses.sdf', '/opt/xchem-fragalysis-2/maxwin/CHIKV_HIPPO/web/web_resources/hit_poses.sdf', '/opt/xchem-fragalysis-2/maxwin/CHIKV_HIPPO/web2/web_resources/hit_poses.sdf']

>  <observation_longname>  (302) 
nan

>  <ConformerSites alias>  (302) 
nan

>  <CanonSites alias>  (302) 
nan

>  <CrystalformSites alias>  (302) 
nan

>  <Quatassemblies alias>  (302) 
nan

>  <Crystalforms alias>  (302) 
nan

$$$$
c1331a
     RDKit          3D

 11 12  0  0  0  0  0  0  0  0999 V2000
   18.8570    4.4430   11.6040 O   0  0  0  0  0  0  0  0  0  0  0  0
   17.8110    3.9360   12.1070 C   0  0  0  0  0  0  0  0  0  0  0  0
   16.5760    3.4740   11.3540 C   0  0  0  0  0  0  0  0  0  0  0  0
   16.3590    3.4390   10.1350 O   0  0  0  0  0  0  0  0  0  0  0  0
   17.4740    3.6980   13.4780 C   0  0  0  0  0  0  0  0  0  0  0  0
   16.1750    3.1640   13.5950 C   0  0  0  0  0  0  0  0  0  0  0  0
   15.6420    3.0260   12.3260 N   0  0  0  0  0  0  0  0  0  0  0  0
   18.2190    3.8990   14.6370 C   0  0  0  0  0  0  0  0  0  0  0  0
   17.6720    3.5800   15.8700 C   0  0  0  0  0  0  0  0  0  0  0  0
   16.3830    3.0700   15.9670 C   0  0  0  0  0  0  0  0  0  0  0  0
   15.6190    2.8600   14.8300 C   0  0  0  0  0  0  0  0  0  0  0  0
  4  3  2  0
  3  7  1  0
  7  6  1  0
  6 11  2  0
 11 10  1  0
 10  9  2  0
  9  8  1  0
  8  5  2  0
  6  5  1  0
  5  2  1  0
  3  2  1  0
  2  1  2  0
M  END
>  <id>  (303) 
6091

>  <inchikey>  (303) 
JXDYKVIHCLTXOP-UHFFFAOYSA-N

>  <alias>  (303) 
c1331a

>  <smiles>  (303) 
O=C1Nc2ccccc2C1=O

>  <path>  (303) 
/opt/xchem-fragalysis-2/maxwin/CHIKV_Mac_20240920/aligned_files/c1331a/c1331a_hippo.pdb

>  <compound>  (303) 
JXDYKVIHCLTXOP-UHFFFAOYSA-N

>  <target>  (303) 
CHIKV_Mac

>  <tags>  (303) 
['[Other] Oxyanion site', 'hits', '[Other] Trp148 site', '[Other] fragment screen']

>  <reference>  (303) 
None

>  <exports>  (303) 
['/opt/xchem-fragalysis-2/maxwin/CHIKV_HIPPO/web_resources/hit_poses.sdf', '/opt/xchem-fragalysis-2/maxwin/CHIKV_HIPPO/web/web_resources/hit_poses.sdf', '/opt/xchem-fragalysis-2/maxwin/CHIKV_HIPPO/web2/web_resources/hit_poses.sdf']

>  <observation_longname>  (303) 
CHIKV_MacB-x1331_A_305_1_CHIKV_MacB-x2352+C+401+1

>  <ConformerSites alias>  (303) 
1a - c2352/C/401

>  <CanonSites alias>  (303) 
1 - c2352/C/401/1

>  <CrystalformSites alias>  (303) 
F1a - c0270/A/304

>  <Quatassemblies alias>  (303) 
A1 - monomer

>  <Crystalforms alias>  (303) 
F1 - P31-4fold-NCS

$$$$
c1331c
     RDKit          3D

 11 12  0  0  0  0  0  0  0  0999 V2000
   18.9420    4.3550   11.5200 O   0  0  0  0  0  0  0  0  0  0  0  0
   17.8420    4.0540   12.0490 C   0  0  0  0  0  0  0  0  0  0  0  0
   16.5840    3.6810   11.2970 C   0  0  0  0  0  0  0  0  0  0  0  0
   16.3840    3.5870   10.0760 O   0  0  0  0  0  0  0  0  0  0  0  0
   17.4540    3.9890   13.4410 C   0  0  0  0  0  0  0  0  0  0  0  0
   16.1020    3.6110   13.5480 C   0  0  0  0  0  0  0  0  0  0  0  0
   15.5990    3.4330   12.2680 N   0  0  0  0  0  0  0  0  0  0  0  0
   18.1690    4.2440   14.6090 C   0  0  0  0  0  0  0  0  0  0  0  0
   17.5420    4.1150   15.8420 C   0  0  0  0  0  0  0  0  0  0  0  0
   16.2080    3.7370   15.9270 C   0  0  0  0  0  0  0  0  0  0  0  0
   15.4720    3.4800   14.7800 C   0  0  0  0  0  0  0  0  0  0  0  0
  4  3  2  0
  3  7  1  0
  7  6  1  0
  6 11  2  0
 11 10  1  0
 10  9  2  0
  9  8  1  0
  8  5  2  0
  6  5  1  0
  5  2  1  0
  3  2  1  0
  2  1  2  0
M  END
>  <id>  (304) 
6092

>  <inchikey>  (304) 
JXDYKVIHCLTXOP-UHFFFAOYSA-N

>  <alias>  (304) 
c1331c

>  <smiles>  (304) 
O=C1Nc2ccccc2C1=O

>  <path>  (304) 
/opt/xchem-fragalysis-2/maxwin/CHIKV_Mac_20240920/aligned_files/c1331c/c1331c_hippo.pdb

>  <compound>  (304) 
JXDYKVIHCLTXOP-UHFFFAOYSA-N

>  <target>  (304) 
CHIKV_Mac

>  <tags>  (304) 
['[Other] Oxyanion site', 'hits', '[Other] Trp148 site', '[Other] fragment screen']

>  <reference>  (304) 
None

>  <exports>  (304) 
['/opt/xchem-fragalysis-2/maxwin/CHIKV_HIPPO/web_resources/hit_poses.sdf', '/opt/xchem-fragalysis-2/maxwin/CHIKV_HIPPO/web/web_resources/hit_poses.sdf', '/opt/xchem-fragalysis-2/maxwin/CHIKV_HIPPO/web2/web_resources/hit_poses.sdf']

>  <observation_longname>  (304) 
nan

>  <ConformerSites alias>  (304) 
nan

>  <CanonSites alias>  (304) 
nan

>  <CrystalformSites alias>  (304) 
nan

>  <Quatassemblies alias>  (304) 
nan

>  <Crystalforms alias>  (304) 
nan

$$$$
c1331d
     RDKit          3D

 11 12  0  0  0  0  0  0  0  0999 V2000
   18.6520    4.5010   11.6800 O   0  0  0  0  0  0  0  0  0  0  0  0
   17.5680    4.0910   12.1780 C   0  0  0  0  0  0  0  0  0  0  0  0
   16.3390    3.6470   11.4070 C   0  0  0  0  0  0  0  0  0  0  0  0
   16.1560    3.5660   10.1770 O   0  0  0  0  0  0  0  0  0  0  0  0
   17.1810    3.9630   13.5550 C   0  0  0  0  0  0  0  0  0  0  0  0
   15.8550    3.5010   13.6470 C   0  0  0  0  0  0  0  0  0  0  0  0
   15.3670    3.3160   12.3610 N   0  0  0  0  0  0  0  0  0  0  0  0
   17.8750    4.2350   14.7320 C   0  0  0  0  0  0  0  0  0  0  0  0
   17.2520    4.0470   15.9600 C   0  0  0  0  0  0  0  0  0  0  0  0
   15.9430    3.5940   16.0280 C   0  0  0  0  0  0  0  0  0  0  0  0
   15.2280    3.3200   14.8720 C   0  0  0  0  0  0  0  0  0  0  0  0
  4  3  2  0
  3  7  1  0
  7  6  1  0
  6 11  2  0
 11 10  1  0
 10  9  2  0
  9  8  1  0
  8  5  2  0
  6  5  1  0
  5  2  1  0
  3  2  1  0
  2  1  2  0
M  END
>  <id>  (305) 
6093

>  <inchikey>  (305) 
JXDYKVIHCLTXOP-UHFFFAOYSA-N

>  <alias>  (305) 
c1331d

>  <smiles>  (305) 
O=C1Nc2ccccc2C1=O

>  <path>  (305) 
/opt/xchem-fragalysis-2/maxwin/CHIKV_Mac_20240920/aligned_files/c1331d/c1331d_hippo.pdb

>  <compound>  (305) 
JXDYKVIHCLTXOP-UHFFFAOYSA-N

>  <target>  (305) 
CHIKV_Mac

>  <tags>  (305) 
['[Other] Oxyanion site', 'hits', '[Other] Trp148 site', '[Other] fragment screen']

>  <reference>  (305) 
None

>  <exports>  (305) 
['/opt/xchem-fragalysis-2/maxwin/CHIKV_HIPPO/web_resources/hit_poses.sdf', '/opt/xchem-fragalysis-2/maxwin/CHIKV_HIPPO/web/web_resources/hit_poses.sdf', '/opt/xchem-fragalysis-2/maxwin/CHIKV_HIPPO/web2/web_resources/hit_poses.sdf']

>  <observation_longname>  (305) 
nan

>  <ConformerSites alias>  (305) 
nan

>  <CanonSites alias>  (305) 
nan

>  <CrystalformSites alias>  (305) 
nan

>  <Quatassemblies alias>  (305) 
nan

>  <Crystalforms alias>  (305) 
nan

$$$$
c1331e
     RDKit          3D

 11 12  0  0  0  0  0  0  0  0999 V2000
   18.6030    4.6160   11.6150 O   0  0  0  0  0  0  0  0  0  0  0  0
   17.6610    4.0480   12.1980 C   0  0  0  0  0  0  0  0  0  0  0  0
   16.4890    3.3810   11.5240 C   0  0  0  0  0  0  0  0  0  0  0  0
   16.2360    3.2210   10.3170 O   0  0  0  0  0  0  0  0  0  0  0  0
   17.4070    3.8910   13.6070 C   0  0  0  0  0  0  0  0  0  0  0  0
   16.1890    3.2120   13.8010 C   0  0  0  0  0  0  0  0  0  0  0  0
   15.6570    2.9140   12.5550 N   0  0  0  0  0  0  0  0  0  0  0  0
   18.1420    4.2740   14.7250 C   0  0  0  0  0  0  0  0  0  0  0  0
   17.6640    3.9820   15.9980 C   0  0  0  0  0  0  0  0  0  0  0  0
   16.4560    3.3140   16.1690 C   0  0  0  0  0  0  0  0  0  0  0  0
   15.7040    2.9230   15.0720 C   0  0  0  0  0  0  0  0  0  0  0  0
  4  3  2  0
  3  7  1  0
  7  6  1  0
  6 11  2  0
 11 10  1  0
 10  9  2  0
  9  8  1  0
  8  5  2  0
  6  5  1  0
  5  2  1  0
  3  2  1  0
  2  1  2  0
M  END
>  <id>  (306) 
6094

>  <inchikey>  (306) 
JXDYKVIHCLTXOP-UHFFFAOYSA-N

>  <alias>  (306) 
c1331e

>  <smiles>  (306) 
O=C1Nc2ccccc2C1=O

>  <path>  (306) 
/opt/xchem-fragalysis-2/maxwin/CHIKV_Mac_20240920/aligned_files/c1331e/c1331e_hippo.pdb

>  <compound>  (306) 
JXDYKVIHCLTXOP-UHFFFAOYSA-N

>  <target>  (306) 
CHIKV_Mac

>  <tags>  (306) 
['[Other] Oxyanion site', 'hits', '[Other] Trp148 site', '[Other] fragment screen']

>  <reference>  (306) 
None

>  <exports>  (306) 
['/opt/xchem-fragalysis-2/maxwin/CHIKV_HIPPO/web_resources/hit_poses.sdf', '/opt/xchem-fragalysis-2/maxwin/CHIKV_HIPPO/web/web_resources/hit_poses.sdf', '/opt/xchem-fragalysis-2/maxwin/CHIKV_HIPPO/web2/web_resources/hit_poses.sdf']

>  <observation_longname>  (306) 
nan

>  <ConformerSites alias>  (306) 
nan

>  <CanonSites alias>  (306) 
nan

>  <CrystalformSites alias>  (306) 
nan

>  <Quatassemblies alias>  (306) 
nan

>  <Crystalforms alias>  (306) 
nan

$$$$
c1335a
     RDKit          3D

  9  9  0  0  0  0  0  0  0  0999 V2000
   14.2570    0.7000   18.3460 N   0  0  0  0  0  0  0  0  0  0  0  0
   15.0840   -0.3800   18.6040 C   0  0  0  0  0  0  0  0  0  0  0  0
   15.9300   -0.8860   17.6140 C   0  0  0  0  0  0  0  0  0  0  0  0
   16.8250   -1.9030   17.8940 C   0  0  0  0  0  0  0  0  0  0  0  0
   15.1420   -0.9510   19.8770 C   0  0  0  0  0  0  0  0  0  0  0  0
   16.0370   -1.9690   20.1570 C   0  0  0  0  0  0  0  0  0  0  0  0
   16.8920   -2.4420   19.1690 C   0  0  0  0  0  0  0  0  0  0  0  0
   18.0920   -3.6870   19.5120 S   0  0  0  0  0  0  0  0  0  0  0  0
   19.6110   -3.0060   18.8490 C   0  0  0  0  0  0  0  0  0  0  0  0
  9  8  1  0
  8  7  1  0
  7  4  2  0
  4  3  1  0
  3  2  2  0
  2  1  1  0
  5  2  1  0
  6  5  2  0
  7  6  1  0
M  END
>  <id>  (307) 
6095

>  <inchikey>  (307) 
YKFROQCFVXOUPW-UHFFFAOYSA-N

>  <alias>  (307) 
c1335a

>  <smiles>  (307) 
CSc1ccc(N)cc1

>  <path>  (307) 
/opt/xchem-fragalysis-2/maxwin/CHIKV_Mac_20240920/aligned_files/c1335a/c1335a_hippo.pdb

>  <compound>  (307) 
YKFROQCFVXOUPW-UHFFFAOYSA-N

>  <target>  (307) 
CHIKV_Mac

>  <tags>  (307) 
['[Other] ignore', 'hits']

>  <reference>  (307) 
None

>  <exports>  (307) 
['/opt/xchem-fragalysis-2/maxwin/CHIKV_HIPPO/web_resources/hit_poses.sdf', '/opt/xchem-fragalysis-2/maxwin/CHIKV_HIPPO/web/web_resources/hit_poses.sdf', '/opt/xchem-fragalysis-2/maxwin/CHIKV_HIPPO/web2/web_resources/hit_poses.sdf']

>  <observation_longname>  (307) 
nan

>  <ConformerSites alias>  (307) 
nan

>  <CanonSites alias>  (307) 
nan

>  <CrystalformSites alias>  (307) 
nan

>  <Quatassemblies alias>  (307) 
nan

>  <Crystalforms alias>  (307) 
nan

$$$$
c1335b
     RDKit          3D

  9  9  0  0  0  0  0  0  0  0999 V2000
   17.1560   14.2470   13.1860 N   0  0  0  0  0  0  0  0  0  0  0  0
   18.1860   13.6140   12.5200 C   0  0  0  0  0  0  0  0  0  0  0  0
   19.4890   14.1190   12.5690 C   0  0  0  0  0  0  0  0  0  0  0  0
   20.5060   13.5290   11.8400 C   0  0  0  0  0  0  0  0  0  0  0  0
   17.9440   12.4820   11.7420 C   0  0  0  0  0  0  0  0  0  0  0  0
   18.9620   11.8930   11.0130 C   0  0  0  0  0  0  0  0  0  0  0  0
   20.2430   12.4230   11.0420 C   0  0  0  0  0  0  0  0  0  0  0  0
   21.4530   11.6690   10.0060 S   0  0  0  0  0  0  0  0  0  0  0  0
   22.6850   12.9530    9.7760 C   0  0  0  0  0  0  0  0  0  0  0  0
  9  8  1  0
  8  7  1  0
  7  4  2  0
  4  3  1  0
  3  2  2  0
  2  1  1  0
  5  2  1  0
  6  5  2  0
  7  6  1  0
M  END
>  <id>  (308) 
6096

>  <inchikey>  (308) 
YKFROQCFVXOUPW-UHFFFAOYSA-N

>  <alias>  (308) 
c1335b

>  <smiles>  (308) 
CSc1ccc(N)cc1

>  <path>  (308) 
/opt/xchem-fragalysis-2/maxwin/CHIKV_Mac_20240920/aligned_files/c1335b/c1335b_hippo.pdb

>  <compound>  (308) 
YKFROQCFVXOUPW-UHFFFAOYSA-N

>  <target>  (308) 
CHIKV_Mac

>  <tags>  (308) 
['hits', '[Other] Arg144 pocket', '[Other] fragment screen']

>  <reference>  (308) 
None

>  <exports>  (308) 
['/opt/xchem-fragalysis-2/maxwin/CHIKV_HIPPO/web_resources/hit_poses.sdf', '/opt/xchem-fragalysis-2/maxwin/CHIKV_HIPPO/web/web_resources/hit_poses.sdf', '/opt/xchem-fragalysis-2/maxwin/CHIKV_HIPPO/web2/web_resources/hit_poses.sdf']

>  <observation_longname>  (308) 
nan

>  <ConformerSites alias>  (308) 
nan

>  <CanonSites alias>  (308) 
nan

>  <CrystalformSites alias>  (308) 
nan

>  <Quatassemblies alias>  (308) 
nan

>  <Crystalforms alias>  (308) 
nan

$$$$
c1335c
     RDKit          3D

  9  9  0  0  0  0  0  0  0  0999 V2000
   14.5960    1.2340   18.0680 N   0  0  0  0  0  0  0  0  0  0  0  0
   15.3580    0.1120   18.3260 C   0  0  0  0  0  0  0  0  0  0  0  0
   16.1490   -0.4620   17.3260 C   0  0  0  0  0  0  0  0  0  0  0  0
   16.9300   -1.5740   17.5890 C   0  0  0  0  0  0  0  0  0  0  0  0
   15.3700   -0.4720   19.5980 C   0  0  0  0  0  0  0  0  0  0  0  0
   16.1520   -1.5830   19.8590 C   0  0  0  0  0  0  0  0  0  0  0  0
   16.9400   -2.1350   18.8590 C   0  0  0  0  0  0  0  0  0  0  0  0
   17.9810   -3.5170   19.1930 S   0  0  0  0  0  0  0  0  0  0  0  0
   19.5690   -3.0230   18.5260 C   0  0  0  0  0  0  0  0  0  0  0  0
  9  8  1  0
  8  7  1  0
  7  4  2  0
  4  3  1  0
  3  2  2  0
  2  1  1  0
  5  2  1  0
  6  5  2  0
  7  6  1  0
M  END
>  <id>  (309) 
6097

>  <inchikey>  (309) 
YKFROQCFVXOUPW-UHFFFAOYSA-N

>  <alias>  (309) 
c1335c

>  <smiles>  (309) 
CSc1ccc(N)cc1

>  <path>  (309) 
/opt/xchem-fragalysis-2/maxwin/CHIKV_Mac_20240920/aligned_files/c1335c/c1335c_hippo.pdb

>  <compound>  (309) 
YKFROQCFVXOUPW-UHFFFAOYSA-N

>  <target>  (309) 
CHIKV_Mac

>  <tags>  (309) 
['[Other] ignore', 'hits']

>  <reference>  (309) 
None

>  <exports>  (309) 
['/opt/xchem-fragalysis-2/maxwin/CHIKV_HIPPO/web_resources/hit_poses.sdf', '/opt/xchem-fragalysis-2/maxwin/CHIKV_HIPPO/web/web_resources/hit_poses.sdf', '/opt/xchem-fragalysis-2/maxwin/CHIKV_HIPPO/web2/web_resources/hit_poses.sdf']

>  <observation_longname>  (309) 
nan

>  <ConformerSites alias>  (309) 
nan

>  <CanonSites alias>  (309) 
nan

>  <CrystalformSites alias>  (309) 
nan

>  <Quatassemblies alias>  (309) 
nan

>  <Crystalforms alias>  (309) 
nan

$$$$
c1337c
     RDKit          3D

 13 14  0  0  0  0  0  0  0  0999 V2000
    5.4090   19.6750   -6.3710 O   0  0  0  0  0  0  0  0  0  0  0  0
    5.5920   18.3900   -5.7770 S   0  0  0  0  0  0  0  0  0  0  0  0
    6.0860   18.2740   -4.4410 O   0  0  0  0  0  0  0  0  0  0  0  0
    6.5230   17.5440   -6.7280 N   0  0  0  0  0  0  0  0  0  0  0  0
    4.0390   17.6060   -5.8010 C   0  0  0  0  0  0  0  0  0  0  0  0
    2.9730   18.2820   -5.2620 O   0  0  0  0  0  0  0  0  0  0  0  0
    1.8830   17.4380   -5.3500 C   0  0  0  0  0  0  0  0  0  0  0  0
    2.2540   16.2430   -5.9470 C   0  0  0  0  0  0  0  0  0  0  0  0
    3.6600   16.3740   -6.2390 C   0  0  0  0  0  0  0  0  0  0  0  0
    0.5960   17.7030   -4.9060 C   0  0  0  0  0  0  0  0  0  0  0  0
   -0.3600   16.7020   -5.0610 C   0  0  0  0  0  0  0  0  0  0  0  0
   -0.0220   15.4880   -5.6510 C   0  0  0  0  0  0  0  0  0  0  0  0
    1.2760   15.2540   -6.0950 C   0  0  0  0  0  0  0  0  0  0  0  0
  4  2  1  0
  3  2  2  0
  2  1  2  0
  5  2  1  0
  5  9  2  0
  9  8  1  0
  8 13  2  0
 13 12  1  0
 12 11  2  0
 11 10  1  0
 10  7  2  0
  8  7  1  0
  7  6  1  0
  6  5  1  0
M  END
>  <id>  (310) 
6098

>  <inchikey>  (310) 
PBECZJTWMSIKFE-UHFFFAOYSA-N

>  <alias>  (310) 
c1337c

>  <smiles>  (310) 
NS(=O)(=O)c1cc2ccccc2o1

>  <path>  (310) 
/opt/xchem-fragalysis-2/maxwin/CHIKV_Mac_20240920/aligned_files/c1337c/c1337c_hippo.pdb

>  <compound>  (310) 
PBECZJTWMSIKFE-UHFFFAOYSA-N

>  <target>  (310) 
CHIKV_Mac

>  <tags>  (310) 
['[Other] ignore', 'hits']

>  <reference>  (310) 
None

>  <exports>  (310) 
['/opt/xchem-fragalysis-2/maxwin/CHIKV_HIPPO/web_resources/hit_poses.sdf', '/opt/xchem-fragalysis-2/maxwin/CHIKV_HIPPO/web/web_resources/hit_poses.sdf', '/opt/xchem-fragalysis-2/maxwin/CHIKV_HIPPO/web2/web_resources/hit_poses.sdf']

>  <observation_longname>  (310) 
nan

>  <ConformerSites alias>  (310) 
nan

>  <CanonSites alias>  (310) 
nan

>  <CrystalformSites alias>  (310) 
nan

>  <Quatassemblies alias>  (310) 
nan

>  <Crystalforms alias>  (310) 
nan

$$$$
c1337a
     RDKit          3D

 13 14  0  0  0  0  0  0  0  0999 V2000
   14.9080   13.7840   13.1900 O   0  0  0  0  0  0  0  0  0  0  0  0
   15.1670   12.5770   12.4730 S   0  0  0  0  0  0  0  0  0  0  0  0
   14.9740   11.3080   13.1020 O   0  0  0  0  0  0  0  0  0  0  0  0
   14.3070   12.6020   11.1360 N   0  0  0  0  0  0  0  0  0  0  0  0
   16.8330   12.7150   12.0270 C   0  0  0  0  0  0  0  0  0  0  0  0
   17.4040   11.6770   11.3340 O   0  0  0  0  0  0  0  0  0  0  0  0
   18.7260   12.0290   11.1170 C   0  0  0  0  0  0  0  0  0  0  0  0
   18.9860   13.2730   11.6740 C   0  0  0  0  0  0  0  0  0  0  0  0
   17.7390   13.7070   12.2600 C   0  0  0  0  0  0  0  0  0  0  0  0
   19.6630   11.3010   10.4040 C   0  0  0  0  0  0  0  0  0  0  0  0
   20.9220   11.8650   10.2250 C   0  0  0  0  0  0  0  0  0  0  0  0
   21.2140   13.1220   10.7500 C   0  0  0  0  0  0  0  0  0  0  0  0
   20.2590   13.8230   11.4790 C   0  0  0  0  0  0  0  0  0  0  0  0
  4  2  1  0
  3  2  2  0
  2  1  2  0
  5  2  1  0
  5  9  2  0
  9  8  1  0
  8 13  2  0
 13 12  1  0
 12 11  2  0
 11 10  1  0
 10  7  2  0
  8  7  1  0
  7  6  1  0
  6  5  1  0
M  END
>  <id>  (311) 
6099

>  <inchikey>  (311) 
PBECZJTWMSIKFE-UHFFFAOYSA-N

>  <alias>  (311) 
c1337a

>  <smiles>  (311) 
NS(=O)(=O)c1cc2ccccc2o1

>  <path>  (311) 
/opt/xchem-fragalysis-2/maxwin/CHIKV_Mac_20240920/aligned_files/c1337a/c1337a_hippo.pdb

>  <compound>  (311) 
PBECZJTWMSIKFE-UHFFFAOYSA-N

>  <target>  (311) 
CHIKV_Mac

>  <tags>  (311) 
['hits', '[Other] Arg144 pocket', '[Other] fragment screen']

>  <reference>  (311) 
None

>  <exports>  (311) 
['/opt/xchem-fragalysis-2/maxwin/CHIKV_HIPPO/web_resources/hit_poses.sdf', '/opt/xchem-fragalysis-2/maxwin/CHIKV_HIPPO/web/web_resources/hit_poses.sdf', '/opt/xchem-fragalysis-2/maxwin/CHIKV_HIPPO/web2/web_resources/hit_poses.sdf']

>  <observation_longname>  (311) 
nan

>  <ConformerSites alias>  (311) 
nan

>  <CanonSites alias>  (311) 
nan

>  <CrystalformSites alias>  (311) 
nan

>  <Quatassemblies alias>  (311) 
nan

>  <Crystalforms alias>  (311) 
nan

$$$$
c1337b
     RDKit          3D

 13 14  0  0  0  0  0  0  0  0999 V2000
   14.6990   13.4960   13.4540 O   0  0  0  0  0  0  0  0  0  0  0  0
   15.0980   12.3550   12.6950 S   0  0  0  0  0  0  0  0  0  0  0  0
   14.8790   11.0380   13.1970 O   0  0  0  0  0  0  0  0  0  0  0  0
   14.4370   12.4520   11.2570 N   0  0  0  0  0  0  0  0  0  0  0  0
   16.7520   12.6040   12.3460 C   0  0  0  0  0  0  0  0  0  0  0  0
   17.3610   11.6670   11.5510 O   0  0  0  0  0  0  0  0  0  0  0  0
   18.6770   12.0690   11.4210 C   0  0  0  0  0  0  0  0  0  0  0  0
   18.8890   13.2470   12.1230 C   0  0  0  0  0  0  0  0  0  0  0  0
   17.6180   13.5820   12.7210 C   0  0  0  0  0  0  0  0  0  0  0  0
   19.6660   11.4200   10.6990 C   0  0  0  0  0  0  0  0  0  0  0  0
   20.9350   11.9880   10.6870 C   0  0  0  0  0  0  0  0  0  0  0  0
   21.1840   13.1750   11.3740 C   0  0  0  0  0  0  0  0  0  0  0  0
   20.1710   13.8050   12.0910 C   0  0  0  0  0  0  0  0  0  0  0  0
  4  2  1  0
  3  2  2  0
  2  1  2  0
  5  2  1  0
  5  9  2  0
  9  8  1  0
  8 13  2  0
 13 12  1  0
 12 11  2  0
 11 10  1  0
 10  7  2  0
  8  7  1  0
  7  6  1  0
  6  5  1  0
M  END
>  <id>  (312) 
6100

>  <inchikey>  (312) 
PBECZJTWMSIKFE-UHFFFAOYSA-N

>  <alias>  (312) 
c1337b

>  <smiles>  (312) 
NS(=O)(=O)c1cc2ccccc2o1

>  <path>  (312) 
/opt/xchem-fragalysis-2/maxwin/CHIKV_Mac_20240920/aligned_files/c1337b/c1337b_hippo.pdb

>  <compound>  (312) 
PBECZJTWMSIKFE-UHFFFAOYSA-N

>  <target>  (312) 
CHIKV_Mac

>  <tags>  (312) 
['hits', '[Other] Arg144 pocket', '[Other] fragment screen']

>  <reference>  (312) 
None

>  <exports>  (312) 
['/opt/xchem-fragalysis-2/maxwin/CHIKV_HIPPO/web_resources/hit_poses.sdf', '/opt/xchem-fragalysis-2/maxwin/CHIKV_HIPPO/web/web_resources/hit_poses.sdf', '/opt/xchem-fragalysis-2/maxwin/CHIKV_HIPPO/web2/web_resources/hit_poses.sdf']

>  <observation_longname>  (312) 
nan

>  <ConformerSites alias>  (312) 
nan

>  <CanonSites alias>  (312) 
nan

>  <CrystalformSites alias>  (312) 
nan

>  <Quatassemblies alias>  (312) 
nan

>  <Crystalforms alias>  (312) 
nan

$$$$
c1338a
     RDKit          3D

 11 12  0  0  0  0  0  0  0  0999 V2000
   14.3270   13.6700   12.2990 N   0  0  0  0  0  0  0  0  0  0  0  0
   14.4640   12.3400   12.4030 C   0  0  0  0  0  0  0  0  0  0  0  0
   14.5840   11.6340   11.2780 N   0  0  0  0  0  0  0  0  0  0  0  0
   14.7070   10.2700   11.3730 C   0  0  0  0  0  0  0  0  0  0  0  0
   14.7190    9.5980   12.6230 C   0  0  0  0  0  0  0  0  0  0  0  0
   14.6040   10.3850   13.7880 C   0  0  0  0  0  0  0  0  0  0  0  0
   14.4790   11.7330   13.6880 C   0  0  0  0  0  0  0  0  0  0  0  0
   14.8180    9.5100   10.1840 C   0  0  0  0  0  0  0  0  0  0  0  0
   14.9320    8.1500   10.2410 C   0  0  0  0  0  0  0  0  0  0  0  0
   14.9560    7.4910   11.4630 C   0  0  0  0  0  0  0  0  0  0  0  0
   14.8510    8.1880   12.6340 C   0  0  0  0  0  0  0  0  0  0  0  0
  2  1  1  0
  2  7  2  0
  7  6  1  0
  6  5  2  0
  5 11  1  0
 11 10  2  0
 10  9  1  0
  9  8  2  0
  8  4  1  0
  5  4  1  0
  4  3  2  0
  3  2  1  0
M  END
>  <id>  (313) 
6101

>  <inchikey>  (313) 
GCMNJUJAKQGROZ-UHFFFAOYSA-N

>  <alias>  (313) 
c1338a

>  <smiles>  (313) 
Nc1ccc2ccccc2n1

>  <path>  (313) 
/opt/xchem-fragalysis-2/maxwin/CHIKV_Mac_20240920/aligned_files/c1338a/c1338a_hippo.pdb

>  <compound>  (313) 
GCMNJUJAKQGROZ-UHFFFAOYSA-N

>  <target>  (313) 
CHIKV_Mac

>  <tags>  (313) 
['[Other] Adenine site', 'hits', '[Other] fragment screen']

>  <reference>  (313) 
None

>  <exports>  (313) 
['/opt/xchem-fragalysis-2/maxwin/CHIKV_HIPPO/web_resources/hit_poses.sdf', '/opt/xchem-fragalysis-2/maxwin/CHIKV_HIPPO/web/web_resources/hit_poses.sdf', '/opt/xchem-fragalysis-2/maxwin/CHIKV_HIPPO/web2/web_resources/hit_poses.sdf']

>  <observation_longname>  (313) 
nan

>  <ConformerSites alias>  (313) 
nan

>  <CanonSites alias>  (313) 
nan

>  <CrystalformSites alias>  (313) 
nan

>  <Quatassemblies alias>  (313) 
nan

>  <Crystalforms alias>  (313) 
nan

$$$$
c1338b
     RDKit          3D

 11 12  0  0  0  0  0  0  0  0999 V2000
   14.1800   13.8820   11.5070 N   0  0  0  0  0  0  0  0  0  0  0  0
   14.3300   12.5720   11.7260 C   0  0  0  0  0  0  0  0  0  0  0  0
   14.5520   11.7850   10.6730 N   0  0  0  0  0  0  0  0  0  0  0  0
   14.7770   10.4490   10.8950 C   0  0  0  0  0  0  0  0  0  0  0  0
   14.7840    9.8900   12.1970 C   0  0  0  0  0  0  0  0  0  0  0  0
   14.5460   10.7570   13.2830 C   0  0  0  0  0  0  0  0  0  0  0  0
   14.3150   12.0760   13.0600 C   0  0  0  0  0  0  0  0  0  0  0  0
   14.9430    9.5940    9.7820 C   0  0  0  0  0  0  0  0  0  0  0  0
   15.0870    8.2480    9.9620 C   0  0  0  0  0  0  0  0  0  0  0  0
   15.1060    7.6990   11.2330 C   0  0  0  0  0  0  0  0  0  0  0  0
   14.9600    8.4900   12.3340 C   0  0  0  0  0  0  0  0  0  0  0  0
  2  1  1  0
  2  7  2  0
  7  6  1  0
  6  5  2  0
  5 11  1  0
 11 10  2  0
 10  9  1  0
  9  8  2  0
  8  4  1  0
  5  4  1  0
  4  3  2  0
  3  2  1  0
M  END
>  <id>  (314) 
6102

>  <inchikey>  (314) 
GCMNJUJAKQGROZ-UHFFFAOYSA-N

>  <alias>  (314) 
c1338b

>  <smiles>  (314) 
Nc1ccc2ccccc2n1

>  <path>  (314) 
/opt/xchem-fragalysis-2/maxwin/CHIKV_Mac_20240920/aligned_files/c1338b/c1338b_hippo.pdb

>  <compound>  (314) 
GCMNJUJAKQGROZ-UHFFFAOYSA-N

>  <target>  (314) 
CHIKV_Mac

>  <tags>  (314) 
['[Other] Adenine site', 'hits', '[Other] fragment screen']

>  <reference>  (314) 
None

>  <exports>  (314) 
['/opt/xchem-fragalysis-2/maxwin/CHIKV_HIPPO/web_resources/hit_poses.sdf', '/opt/xchem-fragalysis-2/maxwin/CHIKV_HIPPO/web/web_resources/hit_poses.sdf', '/opt/xchem-fragalysis-2/maxwin/CHIKV_HIPPO/web2/web_resources/hit_poses.sdf']

>  <observation_longname>  (314) 
nan

>  <ConformerSites alias>  (314) 
nan

>  <CanonSites alias>  (314) 
nan

>  <CrystalformSites alias>  (314) 
nan

>  <Quatassemblies alias>  (314) 
nan

>  <Crystalforms alias>  (314) 
nan

$$$$
c1338c
     RDKit          3D

 11 12  0  0  0  0  0  0  0  0999 V2000
   23.0640   13.0550    9.6840 N   0  0  0  0  0  0  0  0  0  0  0  0
   21.8640   12.8310   10.2410 C   0  0  0  0  0  0  0  0  0  0  0  0
   21.3590   13.7740   11.0370 N   0  0  0  0  0  0  0  0  0  0  0  0
   20.1100   13.5780   11.5760 C   0  0  0  0  0  0  0  0  0  0  0  0
   19.3490   12.4150   11.3070 C   0  0  0  0  0  0  0  0  0  0  0  0
   19.9230   11.4370   10.4650 C   0  0  0  0  0  0  0  0  0  0  0  0
   21.1620   11.6320    9.9430 C   0  0  0  0  0  0  0  0  0  0  0  0
   19.5650   14.5770   12.4160 C   0  0  0  0  0  0  0  0  0  0  0  0
   18.3220   14.4200   12.9610 C   0  0  0  0  0  0  0  0  0  0  0  0
   17.5740   13.2840   12.7010 C   0  0  0  0  0  0  0  0  0  0  0  0
   18.0620   12.3000   11.8910 C   0  0  0  0  0  0  0  0  0  0  0  0
  2  1  1  0
  2  7  2  0
  7  6  1  0
  6  5  2  0
  5 11  1  0
 11 10  2  0
 10  9  1  0
  9  8  2  0
  8  4  1  0
  5  4  1  0
  4  3  2  0
  3  2  1  0
M  END
>  <id>  (315) 
6103

>  <inchikey>  (315) 
GCMNJUJAKQGROZ-UHFFFAOYSA-N

>  <alias>  (315) 
c1338c

>  <smiles>  (315) 
Nc1ccc2ccccc2n1

>  <path>  (315) 
/opt/xchem-fragalysis-2/maxwin/CHIKV_Mac_20240920/aligned_files/c1338c/c1338c_hippo.pdb

>  <compound>  (315) 
GCMNJUJAKQGROZ-UHFFFAOYSA-N

>  <target>  (315) 
CHIKV_Mac

>  <tags>  (315) 
['hits', '[Other] Arg144 pocket', '[Other] fragment screen']

>  <reference>  (315) 
None

>  <exports>  (315) 
['/opt/xchem-fragalysis-2/maxwin/CHIKV_HIPPO/web_resources/hit_poses.sdf', '/opt/xchem-fragalysis-2/maxwin/CHIKV_HIPPO/web/web_resources/hit_poses.sdf', '/opt/xchem-fragalysis-2/maxwin/CHIKV_HIPPO/web2/web_resources/hit_poses.sdf']

>  <observation_longname>  (315) 
nan

>  <ConformerSites alias>  (315) 
nan

>  <CanonSites alias>  (315) 
nan

>  <CrystalformSites alias>  (315) 
nan

>  <Quatassemblies alias>  (315) 
nan

>  <Crystalforms alias>  (315) 
nan

$$$$
c1353b
     RDKit          3D

  6  6  0  0  0  0  0  0  0  0999 V2000
   21.0810   11.3010   10.3060 N   0  0  0  0  0  0  0  0  0  0  0  0
   20.2960   12.1110   11.0230 C   0  0  0  0  0  0  0  0  0  0  0  0
   18.5790   11.8340   11.1420 S   0  0  0  0  0  0  0  0  0  0  0  0
   18.4560   13.2060   12.1540 C   0  0  0  0  0  0  0  0  0  0  0  0
   19.6680   13.7650   12.3320 C   0  0  0  0  0  0  0  0  0  0  0  0
   20.7280   13.1550   11.6920 N   0  0  0  0  0  0  0  0  0  0  0  0
  2  1  1  0
  2  6  2  0
  6  5  1  0
  5  4  2  0
  4  3  1  0
  3  2  1  0
M  END
>  <id>  (316) 
6104

>  <inchikey>  (316) 
RAIPHJJURHTUIC-UHFFFAOYSA-N

>  <alias>  (316) 
c1353b

>  <smiles>  (316) 
Nc1nccs1

>  <path>  (316) 
/opt/xchem-fragalysis-2/maxwin/CHIKV_Mac_20240920/aligned_files/c1353b/c1353b.pdb

>  <compound>  (316) 
RAIPHJJURHTUIC-UHFFFAOYSA-N

>  <target>  (316) 
CHIKV_Mac

>  <tags>  (316) 
['hits', '[Other] Arg144 pocket', '[Other] fragment screen']

>  <reference>  (316) 
None

>  <exports>  (316) 
['/opt/xchem-fragalysis-2/maxwin/CHIKV_HIPPO/web_resources/hit_poses.sdf', '/opt/xchem-fragalysis-2/maxwin/CHIKV_HIPPO/web/web_resources/hit_poses.sdf', '/opt/xchem-fragalysis-2/maxwin/CHIKV_HIPPO/web2/web_resources/hit_poses.sdf']

>  <observation_longname>  (316) 
nan

>  <ConformerSites alias>  (316) 
nan

>  <CanonSites alias>  (316) 
nan

>  <CrystalformSites alias>  (316) 
nan

>  <Quatassemblies alias>  (316) 
nan

>  <Crystalforms alias>  (316) 
nan

$$$$
c1353c
     RDKit          3D

  6  6  0  0  0  0  0  0  0  0999 V2000
   16.4670   -1.1730   17.1500 N   0  0  0  0  0  0  0  0  0  0  0  0
   17.3650   -1.9590   17.7520 C   0  0  0  0  0  0  0  0  0  0  0  0
   16.9120   -2.9870   19.0840 S   0  0  0  0  0  0  0  0  0  0  0  0
   18.5270   -3.5300   19.1770 C   0  0  0  0  0  0  0  0  0  0  0  0
   19.2780   -2.9290   18.2360 C   0  0  0  0  0  0  0  0  0  0  0  0
   18.6310   -2.0300   17.4150 N   0  0  0  0  0  0  0  0  0  0  0  0
  2  1  1  0
  2  6  2  0
  6  5  1  0
  5  4  2  0
  4  3  1  0
  3  2  1  0
M  END
>  <id>  (317) 
6105

>  <inchikey>  (317) 
RAIPHJJURHTUIC-UHFFFAOYSA-N

>  <alias>  (317) 
c1353c

>  <smiles>  (317) 
Nc1nccs1

>  <path>  (317) 
/opt/xchem-fragalysis-2/maxwin/CHIKV_Mac_20240920/aligned_files/c1353c/c1353c.pdb

>  <compound>  (317) 
RAIPHJJURHTUIC-UHFFFAOYSA-N

>  <target>  (317) 
CHIKV_Mac

>  <tags>  (317) 
['[Other] ignore', 'hits']

>  <reference>  (317) 
None

>  <exports>  (317) 
['/opt/xchem-fragalysis-2/maxwin/CHIKV_HIPPO/web_resources/hit_poses.sdf', '/opt/xchem-fragalysis-2/maxwin/CHIKV_HIPPO/web/web_resources/hit_poses.sdf', '/opt/xchem-fragalysis-2/maxwin/CHIKV_HIPPO/web2/web_resources/hit_poses.sdf']

>  <observation_longname>  (317) 
nan

>  <ConformerSites alias>  (317) 
nan

>  <CanonSites alias>  (317) 
nan

>  <CrystalformSites alias>  (317) 
nan

>  <Quatassemblies alias>  (317) 
nan

>  <Crystalforms alias>  (317) 
nan

$$$$
c1353a
     RDKit          3D

  6  6  0  0  0  0  0  0  0  0999 V2000
   14.2940   12.7210   11.3660 N   0  0  0  0  0  0  0  0  0  0  0  0
   14.7180   11.4880   11.0850 C   0  0  0  0  0  0  0  0  0  0  0  0
   14.9770   10.3150   12.3500 S   0  0  0  0  0  0  0  0  0  0  0  0
   15.4320    9.1730   11.1540 C   0  0  0  0  0  0  0  0  0  0  0  0
   15.3660    9.7300    9.9290 C   0  0  0  0  0  0  0  0  0  0  0  0
   14.9600   11.0470    9.8720 N   0  0  0  0  0  0  0  0  0  0  0  0
  2  1  1  0
  2  6  2  0
  6  5  1  0
  5  4  2  0
  4  3  1  0
  3  2  1  0
M  END
>  <id>  (318) 
6106

>  <inchikey>  (318) 
RAIPHJJURHTUIC-UHFFFAOYSA-N

>  <alias>  (318) 
c1353a

>  <smiles>  (318) 
Nc1nccs1

>  <path>  (318) 
/opt/xchem-fragalysis-2/maxwin/CHIKV_Mac_20240920/aligned_files/c1353a/c1353a.pdb

>  <compound>  (318) 
RAIPHJJURHTUIC-UHFFFAOYSA-N

>  <target>  (318) 
CHIKV_Mac

>  <tags>  (318) 
['[Other] Adenine site', 'hits', '[Other] fragment screen']

>  <reference>  (318) 
None

>  <exports>  (318) 
['/opt/xchem-fragalysis-2/maxwin/CHIKV_HIPPO/web_resources/hit_poses.sdf', '/opt/xchem-fragalysis-2/maxwin/CHIKV_HIPPO/web/web_resources/hit_poses.sdf', '/opt/xchem-fragalysis-2/maxwin/CHIKV_HIPPO/web2/web_resources/hit_poses.sdf']

>  <observation_longname>  (318) 
nan

>  <ConformerSites alias>  (318) 
nan

>  <CanonSites alias>  (318) 
nan

>  <CrystalformSites alias>  (318) 
nan

>  <Quatassemblies alias>  (318) 
nan

>  <Crystalforms alias>  (318) 
nan

$$$$
c1365a
     RDKit          3D

  8  8  0  0  0  0  0  0  0  0999 V2000
    8.4840    8.1920   15.1930 O   0  0  0  0  0  0  0  0  0  0  0  0
    7.4100    7.9450   15.7410 C   0  0  0  0  0  0  0  0  0  0  0  0
    6.8050    8.8390   16.5830 N   0  0  0  0  0  0  0  0  0  0  0  0
    5.5280    8.7310   17.1010 C   0  0  0  0  0  0  0  0  0  0  0  0
    5.0540    9.6680   17.7490 O   0  0  0  0  0  0  0  0  0  0  0  0
    6.6890    6.8150   15.4790 N   0  0  0  0  0  0  0  0  0  0  0  0
    5.4360    6.6170   15.9650 C   0  0  0  0  0  0  0  0  0  0  0  0
    4.8280    7.5340   16.7410 C   0  0  0  0  0  0  0  0  0  0  0  0
  5  4  2  0
  4  8  1  0
  8  7  2  0
  7  6  1  0
  6  2  1  0
  2  1  2  0
  3  2  1  0
  4  3  1  0
M  END
>  <id>  (319) 
6107

>  <inchikey>  (319) 
ISAKRJDGNUQOIC-UHFFFAOYSA-N

>  <alias>  (319) 
c1365a

>  <smiles>  (319) 
O=c1cc[nH]c(=O)[nH]1

>  <path>  (319) 
/opt/xchem-fragalysis-2/maxwin/CHIKV_Mac_20240920/aligned_files/c1365a/c1365a_hippo.pdb

>  <compound>  (319) 
ISAKRJDGNUQOIC-UHFFFAOYSA-N

>  <target>  (319) 
CHIKV_Mac

>  <tags>  (319) 
['hits', '[Other] Ribose site', '[Other] fragment screen']

>  <reference>  (319) 
None

>  <exports>  (319) 
['/opt/xchem-fragalysis-2/maxwin/CHIKV_HIPPO/web_resources/hit_poses.sdf', '/opt/xchem-fragalysis-2/maxwin/CHIKV_HIPPO/web/web_resources/hit_poses.sdf', '/opt/xchem-fragalysis-2/maxwin/CHIKV_HIPPO/web2/web_resources/hit_poses.sdf']

>  <observation_longname>  (319) 
nan

>  <ConformerSites alias>  (319) 
nan

>  <CanonSites alias>  (319) 
nan

>  <CrystalformSites alias>  (319) 
nan

>  <Quatassemblies alias>  (319) 
nan

>  <Crystalforms alias>  (319) 
nan

$$$$
c1365b
     RDKit          3D

  8  8  0  0  0  0  0  0  0  0999 V2000
   18.5200    4.3490   11.4010 O   0  0  0  0  0  0  0  0  0  0  0  0
   17.6820    3.9760   12.2140 C   0  0  0  0  0  0  0  0  0  0  0  0
   18.0330    3.5510   13.4710 N   0  0  0  0  0  0  0  0  0  0  0  0
   17.1630    3.1140   14.4540 C   0  0  0  0  0  0  0  0  0  0  0  0
   17.6120    2.7610   15.5560 O   0  0  0  0  0  0  0  0  0  0  0  0
   16.3450    3.9510   11.9410 N   0  0  0  0  0  0  0  0  0  0  0  0
   15.4190    3.5360   12.8470 C   0  0  0  0  0  0  0  0  0  0  0  0
   15.7740    3.1200   14.0790 C   0  0  0  0  0  0  0  0  0  0  0  0
  5  4  2  0
  4  8  1  0
  8  7  2  0
  7  6  1  0
  6  2  1  0
  2  1  2  0
  3  2  1  0
  4  3  1  0
M  END
>  <id>  (320) 
6108

>  <inchikey>  (320) 
ISAKRJDGNUQOIC-UHFFFAOYSA-N

>  <alias>  (320) 
c1365b

>  <smiles>  (320) 
O=c1cc[nH]c(=O)[nH]1

>  <path>  (320) 
/opt/xchem-fragalysis-2/maxwin/CHIKV_Mac_20240920/aligned_files/c1365b/c1365b_hippo.pdb

>  <compound>  (320) 
ISAKRJDGNUQOIC-UHFFFAOYSA-N

>  <target>  (320) 
CHIKV_Mac

>  <tags>  (320) 
['[Other] Oxyanion site', 'hits', '[Other] Trp148 site', '[Other] fragment screen']

>  <reference>  (320) 
None

>  <exports>  (320) 
['/opt/xchem-fragalysis-2/maxwin/CHIKV_HIPPO/web_resources/hit_poses.sdf', '/opt/xchem-fragalysis-2/maxwin/CHIKV_HIPPO/web/web_resources/hit_poses.sdf', '/opt/xchem-fragalysis-2/maxwin/CHIKV_HIPPO/web2/web_resources/hit_poses.sdf']

>  <observation_longname>  (320) 
nan

>  <ConformerSites alias>  (320) 
nan

>  <CanonSites alias>  (320) 
nan

>  <CrystalformSites alias>  (320) 
nan

>  <Quatassemblies alias>  (320) 
nan

>  <Crystalforms alias>  (320) 
nan

$$$$
c1365c
     RDKit          3D

  8  8  0  0  0  0  0  0  0  0999 V2000
   18.5920    4.4820   11.9290 O   0  0  0  0  0  0  0  0  0  0  0  0
   17.7530    3.9430   12.6500 C   0  0  0  0  0  0  0  0  0  0  0  0
   18.1030    3.2900   13.8060 N   0  0  0  0  0  0  0  0  0  0  0  0
   17.2320    2.6440   14.6660 C   0  0  0  0  0  0  0  0  0  0  0  0
   17.6780    2.0480   15.6500 O   0  0  0  0  0  0  0  0  0  0  0  0
   16.4180    3.9380   12.3590 N   0  0  0  0  0  0  0  0  0  0  0  0
   15.4960    3.3380   13.1570 C   0  0  0  0  0  0  0  0  0  0  0  0
   15.8520    2.7020   14.2860 C   0  0  0  0  0  0  0  0  0  0  0  0
  5  4  2  0
  4  8  1  0
  8  7  2  0
  7  6  1  0
  6  2  1  0
  2  1  2  0
  3  2  1  0
  4  3  1  0
M  END
>  <id>  (321) 
6109

>  <inchikey>  (321) 
ISAKRJDGNUQOIC-UHFFFAOYSA-N

>  <alias>  (321) 
c1365c

>  <smiles>  (321) 
O=c1cc[nH]c(=O)[nH]1

>  <path>  (321) 
/opt/xchem-fragalysis-2/maxwin/CHIKV_Mac_20240920/aligned_files/c1365c/c1365c_hippo.pdb

>  <compound>  (321) 
ISAKRJDGNUQOIC-UHFFFAOYSA-N

>  <target>  (321) 
CHIKV_Mac

>  <tags>  (321) 
['[Other] Oxyanion site', 'hits', '[Other] Trp148 site', '[Other] fragment screen']

>  <reference>  (321) 
None

>  <exports>  (321) 
['/opt/xchem-fragalysis-2/maxwin/CHIKV_HIPPO/web_resources/hit_poses.sdf', '/opt/xchem-fragalysis-2/maxwin/CHIKV_HIPPO/web/web_resources/hit_poses.sdf', '/opt/xchem-fragalysis-2/maxwin/CHIKV_HIPPO/web2/web_resources/hit_poses.sdf']

>  <observation_longname>  (321) 
nan

>  <ConformerSites alias>  (321) 
nan

>  <CanonSites alias>  (321) 
nan

>  <CrystalformSites alias>  (321) 
nan

>  <Quatassemblies alias>  (321) 
nan

>  <Crystalforms alias>  (321) 
nan

$$$$
c1371b
     RDKit          3D

 10 10  0  0  0  0  0  0  0  0999 V2000
   18.4480   14.3720   12.6090 Cl  0  0  0  0  0  0  0  0  0  0  0  0
   19.3600   13.2660   11.6180 C   0  0  0  0  0  0  0  0  0  0  0  0
   18.7870   12.0700   11.2430 C   0  0  0  0  0  0  0  0  0  0  0  0
   19.5100   11.2080   10.4360 C   0  0  0  0  0  0  0  0  0  0  0  0
   20.7880   11.5420   10.0200 C   0  0  0  0  0  0  0  0  0  0  0  0
   20.6330   13.6220   11.2130 C   0  0  0  0  0  0  0  0  0  0  0  0
   21.3580   12.7540   10.4000 C   0  0  0  0  0  0  0  0  0  0  0  0
   22.7260   13.1350    9.9170 C   0  0  0  0  0  0  0  0  0  0  0  0
   23.3200   12.3940    9.1220 O   0  0  0  0  0  0  0  0  0  0  0  0
   23.2480   14.2690   10.3640 N   0  0  0  0  0  0  0  0  0  0  0  0
 10  8  1  0
  9  8  2  0
  8  7  1  0
  7  5  1  0
  5  4  2  0
  4  3  1  0
  3  2  2  0
  2  1  1  0
  6  2  1  0
  7  6  2  0
M  END
>  <id>  (322) 
6110

>  <inchikey>  (322) 
MJTGQALMWUUPQM-UHFFFAOYSA-N

>  <alias>  (322) 
c1371b

>  <smiles>  (322) 
NC(=O)c1cccc(Cl)c1

>  <path>  (322) 
/opt/xchem-fragalysis-2/maxwin/CHIKV_Mac_20240920/aligned_files/c1371b/c1371b.pdb

>  <compound>  (322) 
MJTGQALMWUUPQM-UHFFFAOYSA-N

>  <target>  (322) 
CHIKV_Mac

>  <tags>  (322) 
['hits', '[Other] Arg144 pocket', '[Other] fragment screen']

>  <reference>  (322) 
None

>  <exports>  (322) 
['/opt/xchem-fragalysis-2/maxwin/CHIKV_HIPPO/web_resources/hit_poses.sdf', '/opt/xchem-fragalysis-2/maxwin/CHIKV_HIPPO/web/web_resources/hit_poses.sdf', '/opt/xchem-fragalysis-2/maxwin/CHIKV_HIPPO/web2/web_resources/hit_poses.sdf']

>  <observation_longname>  (322) 
nan

>  <ConformerSites alias>  (322) 
nan

>  <CanonSites alias>  (322) 
nan

>  <CrystalformSites alias>  (322) 
nan

>  <Quatassemblies alias>  (322) 
nan

>  <Crystalforms alias>  (322) 
nan

$$$$
c1371c
     RDKit          3D

 10 10  0  0  0  0  0  0  0  0999 V2000
   19.8630    2.5620   15.4720 Cl  0  0  0  0  0  0  0  0  0  0  0  0
   18.2080    2.7240   14.9640 C   0  0  0  0  0  0  0  0  0  0  0  0
   17.2040    2.3040   15.8060 C   0  0  0  0  0  0  0  0  0  0  0  0
   15.8920    2.4430   15.3950 C   0  0  0  0  0  0  0  0  0  0  0  0
   15.5950    2.9780   14.1510 C   0  0  0  0  0  0  0  0  0  0  0  0
   17.9400    3.2690   13.7230 C   0  0  0  0  0  0  0  0  0  0  0  0
   16.6180    3.3910   13.3030 C   0  0  0  0  0  0  0  0  0  0  0  0
   16.3460    3.9540   11.9330 C   0  0  0  0  0  0  0  0  0  0  0  0
   17.1630    4.7210   11.4270 O   0  0  0  0  0  0  0  0  0  0  0  0
   15.2240    3.5890   11.3120 N   0  0  0  0  0  0  0  0  0  0  0  0
 10  8  1  0
  9  8  2  0
  8  7  1  0
  7  5  1  0
  5  4  2  0
  4  3  1  0
  3  2  2  0
  2  1  1  0
  6  2  1  0
  7  6  2  0
M  END
>  <id>  (323) 
6111

>  <inchikey>  (323) 
MJTGQALMWUUPQM-UHFFFAOYSA-N

>  <alias>  (323) 
c1371c

>  <smiles>  (323) 
NC(=O)c1cccc(Cl)c1

>  <path>  (323) 
/opt/xchem-fragalysis-2/maxwin/CHIKV_Mac_20240920/aligned_files/c1371c/c1371c.pdb

>  <compound>  (323) 
MJTGQALMWUUPQM-UHFFFAOYSA-N

>  <target>  (323) 
CHIKV_Mac

>  <tags>  (323) 
['[Other] Oxyanion site', 'hits', '[Other] Trp148 site', '[Other] fragment screen']

>  <reference>  (323) 
None

>  <exports>  (323) 
['/opt/xchem-fragalysis-2/maxwin/CHIKV_HIPPO/web_resources/hit_poses.sdf', '/opt/xchem-fragalysis-2/maxwin/CHIKV_HIPPO/web/web_resources/hit_poses.sdf', '/opt/xchem-fragalysis-2/maxwin/CHIKV_HIPPO/web2/web_resources/hit_poses.sdf']

>  <observation_longname>  (323) 
nan

>  <ConformerSites alias>  (323) 
nan

>  <CanonSites alias>  (323) 
nan

>  <CrystalformSites alias>  (323) 
nan

>  <Quatassemblies alias>  (323) 
nan

>  <Crystalforms alias>  (323) 
nan

$$$$
c1371a
     RDKit          3D

 10 10  0  0  0  0  0  0  0  0999 V2000
   15.3370    7.0710   12.5620 Cl  0  0  0  0  0  0  0  0  0  0  0  0
   15.0330    8.7230   13.0160 C   0  0  0  0  0  0  0  0  0  0  0  0
   14.9730    9.0580   14.3550 C   0  0  0  0  0  0  0  0  0  0  0  0
   14.7570   10.3840   14.7010 C   0  0  0  0  0  0  0  0  0  0  0  0
   14.5990   11.3500   13.7180 C   0  0  0  0  0  0  0  0  0  0  0  0
   14.8710    9.6670   12.0220 C   0  0  0  0  0  0  0  0  0  0  0  0
   14.6520   10.9980   12.3680 C   0  0  0  0  0  0  0  0  0  0  0  0
   14.4640   11.9950   11.2490 C   0  0  0  0  0  0  0  0  0  0  0  0
   14.6390   11.6350   10.0720 O   0  0  0  0  0  0  0  0  0  0  0  0
   14.1020   13.2320   11.5710 N   0  0  0  0  0  0  0  0  0  0  0  0
 10  8  1  0
  9  8  2  0
  8  7  1  0
  7  5  1  0
  5  4  2  0
  4  3  1  0
  3  2  2  0
  2  1  1  0
  6  2  1  0
  7  6  2  0
M  END
>  <id>  (324) 
6112

>  <inchikey>  (324) 
MJTGQALMWUUPQM-UHFFFAOYSA-N

>  <alias>  (324) 
c1371a

>  <smiles>  (324) 
NC(=O)c1cccc(Cl)c1

>  <path>  (324) 
/opt/xchem-fragalysis-2/maxwin/CHIKV_Mac_20240920/aligned_files/c1371a/c1371a.pdb

>  <compound>  (324) 
MJTGQALMWUUPQM-UHFFFAOYSA-N

>  <target>  (324) 
CHIKV_Mac

>  <tags>  (324) 
['[Other] Adenine site', 'hits', '[Other] fragment screen']

>  <reference>  (324) 
None

>  <exports>  (324) 
['/opt/xchem-fragalysis-2/maxwin/CHIKV_HIPPO/web_resources/hit_poses.sdf', '/opt/xchem-fragalysis-2/maxwin/CHIKV_HIPPO/web/web_resources/hit_poses.sdf', '/opt/xchem-fragalysis-2/maxwin/CHIKV_HIPPO/web2/web_resources/hit_poses.sdf']

>  <observation_longname>  (324) 
nan

>  <ConformerSites alias>  (324) 
nan

>  <CanonSites alias>  (324) 
nan

>  <CrystalformSites alias>  (324) 
nan

>  <Quatassemblies alias>  (324) 
nan

>  <Crystalforms alias>  (324) 
nan

$$$$
c1372a
     RDKit          3D

 11 11  0  0  0  0  0  0  0  0999 V2000
   15.1030    9.3630   15.4070 Cl  0  0  0  0  0  0  0  0  0  0  0  0
   14.9480    9.1690   13.6810 C   0  0  0  0  0  0  0  0  0  0  0  0
   14.7940   10.2920   12.8900 C   0  0  0  0  0  0  0  0  0  0  0  0
   14.9850    7.9050   13.1390 C   0  0  0  0  0  0  0  0  0  0  0  0
   14.8640    7.7570   11.7700 C   0  0  0  0  0  0  0  0  0  0  0  0
   14.7070    8.8620   10.9200 C   0  0  0  0  0  0  0  0  0  0  0  0
   14.5820    8.6580    9.5680 N   0  0  0  0  0  0  0  0  0  0  0  0
   14.6710   10.1580   11.5000 C   0  0  0  0  0  0  0  0  0  0  0  0
   14.4920   11.3630   10.6300 C   0  0  0  0  0  0  0  0  0  0  0  0
   14.7810   11.3000    9.4300 O   0  0  0  0  0  0  0  0  0  0  0  0
   14.0200   12.4720   11.1840 N   0  0  0  0  0  0  0  0  0  0  0  0
 11  9  1  0
 10  9  2  0
  9  8  1  0
  8  3  1  0
  3  2  2  0
  2  1  1  0
  4  2  1  0
  5  4  2  0
  6  5  1  0
  8  6  2  0
  7  6  1  0
M  END
>  <id>  (325) 
6113

>  <inchikey>  (325) 
DNRVZOZGQHHDAT-UHFFFAOYSA-N

>  <alias>  (325) 
c1372a

>  <smiles>  (325) 
NC(=O)c1cc(Cl)ccc1N

>  <path>  (325) 
/opt/xchem-fragalysis-2/maxwin/CHIKV_Mac_20240920/aligned_files/c1372a/c1372a_hippo.pdb

>  <compound>  (325) 
DNRVZOZGQHHDAT-UHFFFAOYSA-N

>  <target>  (325) 
CHIKV_Mac

>  <tags>  (325) 
['[Other] Adenine site', 'hits', '[Other] fragment screen']

>  <reference>  (325) 
None

>  <exports>  (325) 
['/opt/xchem-fragalysis-2/maxwin/CHIKV_HIPPO/web_resources/hit_poses.sdf', '/opt/xchem-fragalysis-2/maxwin/CHIKV_HIPPO/web/web_resources/hit_poses.sdf', '/opt/xchem-fragalysis-2/maxwin/CHIKV_HIPPO/web2/web_resources/hit_poses.sdf']

>  <observation_longname>  (325) 
CHIKV_MacB-x1372_A_304_1_CHIKV_MacB-x2352+C+401+1

>  <ConformerSites alias>  (325) 
1a - c2352/C/401

>  <CanonSites alias>  (325) 
1 - c2352/C/401/1

>  <CrystalformSites alias>  (325) 
F1a - c0270/A/304

>  <Quatassemblies alias>  (325) 
A1 - monomer

>  <Crystalforms alias>  (325) 
F1 - P31-4fold-NCS

$$$$
c1372b
     RDKit          3D

 11 11  0  0  0  0  0  0  0  0999 V2000
   15.3630    9.4190   15.5670 Cl  0  0  0  0  0  0  0  0  0  0  0  0
   15.1600    9.3020   13.8370 C   0  0  0  0  0  0  0  0  0  0  0  0
   14.9790   10.4580   13.1040 C   0  0  0  0  0  0  0  0  0  0  0  0
   15.1580    8.0630   13.2410 C   0  0  0  0  0  0  0  0  0  0  0  0
   14.9430    7.9710   11.8780 C   0  0  0  0  0  0  0  0  0  0  0  0
   14.7330    9.1140   11.0860 C   0  0  0  0  0  0  0  0  0  0  0  0
   14.4480    8.9620    9.7430 N   0  0  0  0  0  0  0  0  0  0  0  0
   14.7700   10.3850   11.7190 C   0  0  0  0  0  0  0  0  0  0  0  0
   14.6090   11.6330   10.9090 C   0  0  0  0  0  0  0  0  0  0  0  0
   14.2970   11.5650    9.7050 O   0  0  0  0  0  0  0  0  0  0  0  0
   14.8020   12.7870   11.5240 N   0  0  0  0  0  0  0  0  0  0  0  0
 11  9  1  0
 10  9  2  0
  9  8  1  0
  8  3  1  0
  3  2  2  0
  2  1  1  0
  4  2  1  0
  5  4  2  0
  6  5  1  0
  8  6  2  0
  7  6  1  0
M  END
>  <id>  (326) 
6114

>  <inchikey>  (326) 
DNRVZOZGQHHDAT-UHFFFAOYSA-N

>  <alias>  (326) 
c1372b

>  <smiles>  (326) 
NC(=O)c1cc(Cl)ccc1N

>  <path>  (326) 
/opt/xchem-fragalysis-2/maxwin/CHIKV_Mac_20240920/aligned_files/c1372b/c1372b_hippo.pdb

>  <compound>  (326) 
DNRVZOZGQHHDAT-UHFFFAOYSA-N

>  <target>  (326) 
CHIKV_Mac

>  <tags>  (326) 
['[Other] Adenine site', 'hits', '[Other] fragment screen']

>  <reference>  (326) 
None

>  <exports>  (326) 
['/opt/xchem-fragalysis-2/maxwin/CHIKV_HIPPO/web_resources/hit_poses.sdf', '/opt/xchem-fragalysis-2/maxwin/CHIKV_HIPPO/web/web_resources/hit_poses.sdf', '/opt/xchem-fragalysis-2/maxwin/CHIKV_HIPPO/web2/web_resources/hit_poses.sdf']

>  <observation_longname>  (326) 
nan

>  <ConformerSites alias>  (326) 
nan

>  <CanonSites alias>  (326) 
nan

>  <CrystalformSites alias>  (326) 
nan

>  <Quatassemblies alias>  (326) 
nan

>  <Crystalforms alias>  (326) 
nan

$$$$
c1372c
     RDKit          3D

 11 11  0  0  0  0  0  0  0  0999 V2000
   14.9860    9.7680   15.6490 Cl  0  0  0  0  0  0  0  0  0  0  0  0
   14.9800    9.5140   13.9280 C   0  0  0  0  0  0  0  0  0  0  0  0
   14.9070   10.6090   13.0920 C   0  0  0  0  0  0  0  0  0  0  0  0
   15.0360    8.2310   13.4340 C   0  0  0  0  0  0  0  0  0  0  0  0
   15.0190    8.0370   12.0660 C   0  0  0  0  0  0  0  0  0  0  0  0
   14.9320    9.1150   11.1710 C   0  0  0  0  0  0  0  0  0  0  0  0
   14.9100    8.8650    9.8200 N   0  0  0  0  0  0  0  0  0  0  0  0
   14.8640   10.4300   11.7070 C   0  0  0  0  0  0  0  0  0  0  0  0
   14.6670   11.6030   10.7940 C   0  0  0  0  0  0  0  0  0  0  0  0
   14.5970   11.4220    9.5700 O   0  0  0  0  0  0  0  0  0  0  0  0
   14.5550   12.8130   11.3390 N   0  0  0  0  0  0  0  0  0  0  0  0
 11  9  1  0
 10  9  2  0
  9  8  1  0
  8  3  1  0
  3  2  2  0
  2  1  1  0
  4  2  1  0
  5  4  2  0
  6  5  1  0
  8  6  2  0
  7  6  1  0
M  END
>  <id>  (327) 
6115

>  <inchikey>  (327) 
DNRVZOZGQHHDAT-UHFFFAOYSA-N

>  <alias>  (327) 
c1372c

>  <smiles>  (327) 
NC(=O)c1cc(Cl)ccc1N

>  <path>  (327) 
/opt/xchem-fragalysis-2/maxwin/CHIKV_Mac_20240920/aligned_files/c1372c/c1372c_hippo.pdb

>  <compound>  (327) 
DNRVZOZGQHHDAT-UHFFFAOYSA-N

>  <target>  (327) 
CHIKV_Mac

>  <tags>  (327) 
['[Other] Adenine site', 'hits', '[Other] fragment screen']

>  <reference>  (327) 
None

>  <exports>  (327) 
['/opt/xchem-fragalysis-2/maxwin/CHIKV_HIPPO/web_resources/hit_poses.sdf', '/opt/xchem-fragalysis-2/maxwin/CHIKV_HIPPO/web/web_resources/hit_poses.sdf', '/opt/xchem-fragalysis-2/maxwin/CHIKV_HIPPO/web2/web_resources/hit_poses.sdf']

>  <observation_longname>  (327) 
nan

>  <ConformerSites alias>  (327) 
nan

>  <CanonSites alias>  (327) 
nan

>  <CrystalformSites alias>  (327) 
nan

>  <Quatassemblies alias>  (327) 
nan

>  <Crystalforms alias>  (327) 
nan

$$$$
c1372d
     RDKit          3D

 11 11  0  0  0  0  0  0  0  0999 V2000
   15.4750    9.7290   15.7340 Cl  0  0  0  0  0  0  0  0  0  0  0  0
   15.3170    9.3990   14.0300 C   0  0  0  0  0  0  0  0  0  0  0  0
   15.1530   10.4550   13.1560 C   0  0  0  0  0  0  0  0  0  0  0  0
   15.3440    8.0950   13.5900 C   0  0  0  0  0  0  0  0  0  0  0  0
   15.2070    7.8400   12.2390 C   0  0  0  0  0  0  0  0  0  0  0  0
   15.0420    8.8760   11.3050 C   0  0  0  0  0  0  0  0  0  0  0  0
   14.9280    8.5680    9.9710 N   0  0  0  0  0  0  0  0  0  0  0  0
   15.0100   10.2120   11.7850 C   0  0  0  0  0  0  0  0  0  0  0  0
   14.8190   11.3500   10.8280 C   0  0  0  0  0  0  0  0  0  0  0  0
   14.7960   11.1350    9.6080 O   0  0  0  0  0  0  0  0  0  0  0  0
   14.6860   12.5640   11.3370 N   0  0  0  0  0  0  0  0  0  0  0  0
 11  9  1  0
 10  9  2  0
  9  8  1  0
  8  3  1  0
  3  2  2  0
  2  1  1  0
  4  2  1  0
  5  4  2  0
  6  5  1  0
  8  6  2  0
  7  6  1  0
M  END
>  <id>  (328) 
6116

>  <inchikey>  (328) 
DNRVZOZGQHHDAT-UHFFFAOYSA-N

>  <alias>  (328) 
c1372d

>  <smiles>  (328) 
NC(=O)c1cc(Cl)ccc1N

>  <path>  (328) 
/opt/xchem-fragalysis-2/maxwin/CHIKV_Mac_20240920/aligned_files/c1372d/c1372d_hippo.pdb

>  <compound>  (328) 
DNRVZOZGQHHDAT-UHFFFAOYSA-N

>  <target>  (328) 
CHIKV_Mac

>  <tags>  (328) 
['[Other] Adenine site', 'hits', '[Other] fragment screen']

>  <reference>  (328) 
None

>  <exports>  (328) 
['/opt/xchem-fragalysis-2/maxwin/CHIKV_HIPPO/web_resources/hit_poses.sdf', '/opt/xchem-fragalysis-2/maxwin/CHIKV_HIPPO/web/web_resources/hit_poses.sdf', '/opt/xchem-fragalysis-2/maxwin/CHIKV_HIPPO/web2/web_resources/hit_poses.sdf']

>  <observation_longname>  (328) 
nan

>  <ConformerSites alias>  (328) 
nan

>  <CanonSites alias>  (328) 
nan

>  <CrystalformSites alias>  (328) 
nan

>  <Quatassemblies alias>  (328) 
nan

>  <Crystalforms alias>  (328) 
nan

$$$$
c1379a
     RDKit          3D

 12 13  0  0  0  0  0  0  0  0999 V2000
   15.6670    9.6490   15.5920 O   0  0  0  0  0  0  0  0  0  0  0  0
   14.7900    9.2640   14.5520 C   0  0  0  0  0  0  0  0  0  0  0  0
   14.6600   10.3470   13.5090 C   0  0  0  0  0  0  0  0  0  0  0  0
   14.7980   10.0570   12.1510 C   0  0  0  0  0  0  0  0  0  0  0  0
   15.1000    8.7620   11.8150 O   0  0  0  0  0  0  0  0  0  0  0  0
   14.9550    8.4210   10.4240 C   0  0  0  0  0  0  0  0  0  0  0  0
   15.4070    9.5410    9.5420 C   0  0  0  0  0  0  0  0  0  0  0  0
   14.7210   10.7700    9.8390 O   0  0  0  0  0  0  0  0  0  0  0  0
   14.6240   11.0460   11.1810 C   0  0  0  0  0  0  0  0  0  0  0  0
   14.3230   12.3460   11.5630 C   0  0  0  0  0  0  0  0  0  0  0  0
   14.2050   12.6480   12.9110 C   0  0  0  0  0  0  0  0  0  0  0  0
   14.3670   11.6600   13.8720 C   0  0  0  0  0  0  0  0  0  0  0  0
  2  1  1  0
  3  2  1  0
  3 12  2  0
 12 11  1  0
 11 10  2  0
 10  9  1  0
  9  8  1  0
  8  7  1  0
  7  6  1  0
  6  5  1  0
  5  4  1  0
  4  3  1  0
  9  4  2  0
M  END
>  <id>  (329) 
6117

>  <inchikey>  (329) 
WATIARBIFSKYKC-UHFFFAOYSA-N

>  <alias>  (329) 
c1379a

>  <smiles>  (329) 
OCc1cccc2c1OCCO2

>  <path>  (329) 
/opt/xchem-fragalysis-2/maxwin/CHIKV_Mac_20240920/aligned_files/c1379a/c1379a_hippo.pdb

>  <compound>  (329) 
WATIARBIFSKYKC-UHFFFAOYSA-N

>  <target>  (329) 
CHIKV_Mac

>  <tags>  (329) 
['[Other] Adenine site', 'hits', '[Other] fragment screen']

>  <reference>  (329) 
None

>  <exports>  (329) 
['/opt/xchem-fragalysis-2/maxwin/CHIKV_HIPPO/web_resources/hit_poses.sdf', '/opt/xchem-fragalysis-2/maxwin/CHIKV_HIPPO/web/web_resources/hit_poses.sdf', '/opt/xchem-fragalysis-2/maxwin/CHIKV_HIPPO/web2/web_resources/hit_poses.sdf']

>  <observation_longname>  (329) 
nan

>  <ConformerSites alias>  (329) 
nan

>  <CanonSites alias>  (329) 
nan

>  <CrystalformSites alias>  (329) 
nan

>  <Quatassemblies alias>  (329) 
nan

>  <Crystalforms alias>  (329) 
nan

$$$$
c1379b
     RDKit          3D

 12 13  0  0  0  0  0  0  0  0999 V2000
   23.1220   13.2340   12.3320 O   0  0  0  0  0  0  0  0  0  0  0  0
   22.5920   12.6100   11.1700 C   0  0  0  0  0  0  0  0  0  0  0  0
   21.0940   12.4500   11.2260 C   0  0  0  0  0  0  0  0  0  0  0  0
   20.2960   13.3280   11.9610 C   0  0  0  0  0  0  0  0  0  0  0  0
   20.9290   14.3420   12.6290 O   0  0  0  0  0  0  0  0  0  0  0  0
   20.1170   15.0240   13.6000 C   0  0  0  0  0  0  0  0  0  0  0  0
   18.7550   15.2730   13.0720 C   0  0  0  0  0  0  0  0  0  0  0  0
   18.1070   14.0440   12.7100 O   0  0  0  0  0  0  0  0  0  0  0  0
   18.9080   13.1730   12.0130 C   0  0  0  0  0  0  0  0  0  0  0  0
   18.3030   12.1260   11.3360 C   0  0  0  0  0  0  0  0  0  0  0  0
   19.0890   11.2480   10.6030 C   0  0  0  0  0  0  0  0  0  0  0  0
   20.4650   11.4110   10.5450 C   0  0  0  0  0  0  0  0  0  0  0  0
  2  1  1  0
  3  2  1  0
  3 12  2  0
 12 11  1  0
 11 10  2  0
 10  9  1  0
  9  8  1  0
  8  7  1  0
  7  6  1  0
  6  5  1  0
  5  4  1  0
  4  3  1  0
  9  4  2  0
M  END
>  <id>  (330) 
6118

>  <inchikey>  (330) 
WATIARBIFSKYKC-UHFFFAOYSA-N

>  <alias>  (330) 
c1379b

>  <smiles>  (330) 
OCc1cccc2c1OCCO2

>  <path>  (330) 
/opt/xchem-fragalysis-2/maxwin/CHIKV_Mac_20240920/aligned_files/c1379b/c1379b_hippo.pdb

>  <compound>  (330) 
WATIARBIFSKYKC-UHFFFAOYSA-N

>  <target>  (330) 
CHIKV_Mac

>  <tags>  (330) 
['hits', '[Other] Arg144 pocket', '[Other] fragment screen']

>  <reference>  (330) 
None

>  <exports>  (330) 
['/opt/xchem-fragalysis-2/maxwin/CHIKV_HIPPO/web_resources/hit_poses.sdf', '/opt/xchem-fragalysis-2/maxwin/CHIKV_HIPPO/web/web_resources/hit_poses.sdf', '/opt/xchem-fragalysis-2/maxwin/CHIKV_HIPPO/web2/web_resources/hit_poses.sdf']

>  <observation_longname>  (330) 
nan

>  <ConformerSites alias>  (330) 
nan

>  <CanonSites alias>  (330) 
nan

>  <CrystalformSites alias>  (330) 
nan

>  <Quatassemblies alias>  (330) 
nan

>  <Crystalforms alias>  (330) 
nan

$$$$
c1379e
     RDKit          3D

 12 13  0  0  0  0  0  0  0  0999 V2000
   23.1300   12.6320    9.0060 O   0  0  0  0  0  0  0  0  0  0  0  0
   22.7410   13.1750   10.2550 C   0  0  0  0  0  0  0  0  0  0  0  0
   21.3650   12.7110   10.6640 C   0  0  0  0  0  0  0  0  0  0  0  0
   20.6120   13.4330   11.5910 C   0  0  0  0  0  0  0  0  0  0  0  0
   21.2020   14.5400   12.1430 O   0  0  0  0  0  0  0  0  0  0  0  0
   20.5050   15.1270   13.2570 C   0  0  0  0  0  0  0  0  0  0  0  0
   19.0170   15.0820   13.0640 C   0  0  0  0  0  0  0  0  0  0  0  0
   18.5600   13.7400   12.8370 O   0  0  0  0  0  0  0  0  0  0  0  0
   19.3180   13.0340   11.9370 C   0  0  0  0  0  0  0  0  0  0  0  0
   18.7680   11.8990   11.3640 C   0  0  0  0  0  0  0  0  0  0  0  0
   19.5130   11.1720   10.4500 C   0  0  0  0  0  0  0  0  0  0  0  0
   20.7970   11.5680   10.1080 C   0  0  0  0  0  0  0  0  0  0  0  0
  2  1  1  0
  3  2  1  0
  3 12  2  0
 12 11  1  0
 11 10  2  0
 10  9  1  0
  9  8  1  0
  8  7  1  0
  7  6  1  0
  6  5  1  0
  5  4  1  0
  4  3  1  0
  9  4  2  0
M  END
>  <id>  (331) 
6119

>  <inchikey>  (331) 
WATIARBIFSKYKC-UHFFFAOYSA-N

>  <alias>  (331) 
c1379e

>  <smiles>  (331) 
OCc1cccc2c1OCCO2

>  <path>  (331) 
/opt/xchem-fragalysis-2/maxwin/CHIKV_Mac_20240920/aligned_files/c1379e/c1379e_hippo.pdb

>  <compound>  (331) 
WATIARBIFSKYKC-UHFFFAOYSA-N

>  <target>  (331) 
CHIKV_Mac

>  <tags>  (331) 
['hits', '[Other] Arg144 pocket', '[Other] fragment screen']

>  <reference>  (331) 
None

>  <exports>  (331) 
['/opt/xchem-fragalysis-2/maxwin/CHIKV_HIPPO/web_resources/hit_poses.sdf', '/opt/xchem-fragalysis-2/maxwin/CHIKV_HIPPO/web/web_resources/hit_poses.sdf', '/opt/xchem-fragalysis-2/maxwin/CHIKV_HIPPO/web2/web_resources/hit_poses.sdf']

>  <observation_longname>  (331) 
nan

>  <ConformerSites alias>  (331) 
nan

>  <CanonSites alias>  (331) 
nan

>  <CrystalformSites alias>  (331) 
nan

>  <Quatassemblies alias>  (331) 
nan

>  <Crystalforms alias>  (331) 
nan

$$$$
c1379f
     RDKit          3D

 12 13  0  0  0  0  0  0  0  0999 V2000
   15.6500    8.7230   14.5650 O   0  0  0  0  0  0  0  0  0  0  0  0
   14.6040    9.6640   14.6540 C   0  0  0  0  0  0  0  0  0  0  0  0
   14.6120   10.6440   13.5080 C   0  0  0  0  0  0  0  0  0  0  0  0
   14.8470   10.2300   12.1950 C   0  0  0  0  0  0  0  0  0  0  0  0
   15.1700    8.9120   12.0000 O   0  0  0  0  0  0  0  0  0  0  0  0
   15.0030    8.4290   10.6570 C   0  0  0  0  0  0  0  0  0  0  0  0
   15.5290    9.4080    9.6610 C   0  0  0  0  0  0  0  0  0  0  0  0
   15.0100   10.7440    9.8340 O   0  0  0  0  0  0  0  0  0  0  0  0
   14.7830   11.1330   11.1310 C   0  0  0  0  0  0  0  0  0  0  0  0
   14.4920   12.4640   11.3710 C   0  0  0  0  0  0  0  0  0  0  0  0
   14.2810   12.8900   12.6740 C   0  0  0  0  0  0  0  0  0  0  0  0
   14.3380   11.9920   13.7300 C   0  0  0  0  0  0  0  0  0  0  0  0
  2  1  1  0
  3  2  1  0
  3 12  2  0
 12 11  1  0
 11 10  2  0
 10  9  1  0
  9  8  1  0
  8  7  1  0
  7  6  1  0
  6  5  1  0
  5  4  1  0
  4  3  1  0
  9  4  2  0
M  END
>  <id>  (332) 
6120

>  <inchikey>  (332) 
WATIARBIFSKYKC-UHFFFAOYSA-N

>  <alias>  (332) 
c1379f

>  <smiles>  (332) 
OCc1cccc2c1OCCO2

>  <path>  (332) 
/opt/xchem-fragalysis-2/maxwin/CHIKV_Mac_20240920/aligned_files/c1379f/c1379f_hippo.pdb

>  <compound>  (332) 
WATIARBIFSKYKC-UHFFFAOYSA-N

>  <target>  (332) 
CHIKV_Mac

>  <tags>  (332) 
['[Other] Adenine site', 'hits', '[Other] fragment screen']

>  <reference>  (332) 
None

>  <exports>  (332) 
['/opt/xchem-fragalysis-2/maxwin/CHIKV_HIPPO/web_resources/hit_poses.sdf', '/opt/xchem-fragalysis-2/maxwin/CHIKV_HIPPO/web/web_resources/hit_poses.sdf', '/opt/xchem-fragalysis-2/maxwin/CHIKV_HIPPO/web2/web_resources/hit_poses.sdf']

>  <observation_longname>  (332) 
nan

>  <ConformerSites alias>  (332) 
nan

>  <CanonSites alias>  (332) 
nan

>  <CrystalformSites alias>  (332) 
nan

>  <Quatassemblies alias>  (332) 
nan

>  <Crystalforms alias>  (332) 
nan

$$$$
c1379g
     RDKit          3D

 12 13  0  0  0  0  0  0  0  0999 V2000
   18.7110   14.5220   13.2300 O   0  0  0  0  0  0  0  0  0  0  0  0
   20.1040   14.8060   13.1550 C   0  0  0  0  0  0  0  0  0  0  0  0
   20.8220   13.9230   12.1620 C   0  0  0  0  0  0  0  0  0  0  0  0
   20.2280   12.7560   11.6830 C   0  0  0  0  0  0  0  0  0  0  0  0
   18.9930   12.4410   12.1740 O   0  0  0  0  0  0  0  0  0  0  0  0
   18.1450   11.7340   11.2670 C   0  0  0  0  0  0  0  0  0  0  0  0
   18.8600   10.7650   10.3240 C   0  0  0  0  0  0  0  0  0  0  0  0
   20.3060   10.7900   10.2850 O   0  0  0  0  0  0  0  0  0  0  0  0
   20.8820   11.9360   10.7640 C   0  0  0  0  0  0  0  0  0  0  0  0
   22.1480   12.2710   10.3150 C   0  0  0  0  0  0  0  0  0  0  0  0
   22.7500   13.4250   10.7900 C   0  0  0  0  0  0  0  0  0  0  0  0
   22.0950   14.2430   11.7000 C   0  0  0  0  0  0  0  0  0  0  0  0
  2  1  1  0
  3  2  1  0
  3 12  2  0
 12 11  1  0
 11 10  2  0
 10  9  1  0
  9  8  1  0
  8  7  1  0
  7  6  1  0
  6  5  1  0
  5  4  1  0
  4  3  1  0
  9  4  2  0
M  END
>  <id>  (333) 
6121

>  <inchikey>  (333) 
WATIARBIFSKYKC-UHFFFAOYSA-N

>  <alias>  (333) 
c1379g

>  <smiles>  (333) 
OCc1cccc2c1OCCO2

>  <path>  (333) 
/opt/xchem-fragalysis-2/maxwin/CHIKV_Mac_20240920/aligned_files/c1379g/c1379g_hippo.pdb

>  <compound>  (333) 
WATIARBIFSKYKC-UHFFFAOYSA-N

>  <target>  (333) 
CHIKV_Mac

>  <tags>  (333) 
['hits', '[Other] Arg144 pocket', '[Other] fragment screen']

>  <reference>  (333) 
None

>  <exports>  (333) 
['/opt/xchem-fragalysis-2/maxwin/CHIKV_HIPPO/web_resources/hit_poses.sdf', '/opt/xchem-fragalysis-2/maxwin/CHIKV_HIPPO/web/web_resources/hit_poses.sdf', '/opt/xchem-fragalysis-2/maxwin/CHIKV_HIPPO/web2/web_resources/hit_poses.sdf']

>  <observation_longname>  (333) 
CHIKV_MacB-x1379_D_401_1_CHIKV_MacB-x2352+C+401+1

>  <ConformerSites alias>  (333) 
1a - c2352/C/401

>  <CanonSites alias>  (333) 
1 - c2352/C/401/1

>  <CrystalformSites alias>  (333) 
F1a - c0270/A/304

>  <Quatassemblies alias>  (333) 
A1 - monomer

>  <Crystalforms alias>  (333) 
F1 - P31-4fold-NCS

$$$$
c1379c
     RDKit          3D

 12 13  0  0  0  0  0  0  0  0999 V2000
   15.1650    9.3580   16.0660 O   0  0  0  0  0  0  0  0  0  0  0  0
   15.1340    8.8580   14.7370 C   0  0  0  0  0  0  0  0  0  0  0  0
   14.9080    9.9430   13.7120 C   0  0  0  0  0  0  0  0  0  0  0  0
   14.9430    9.6470   12.3510 C   0  0  0  0  0  0  0  0  0  0  0  0
   15.1320    8.3320   12.0150 O   0  0  0  0  0  0  0  0  0  0  0  0
   15.1220    8.0340   10.6060 C   0  0  0  0  0  0  0  0  0  0  0  0
   15.6090    9.1610    9.7560 C   0  0  0  0  0  0  0  0  0  0  0  0
   14.9210   10.3840   10.0440 O   0  0  0  0  0  0  0  0  0  0  0  0
   14.8110   10.6500   11.3870 C   0  0  0  0  0  0  0  0  0  0  0  0
   14.6110   11.9610   11.7770 C   0  0  0  0  0  0  0  0  0  0  0  0
   14.5600   12.2660   13.1290 C   0  0  0  0  0  0  0  0  0  0  0  0
   14.7080   11.2700   14.0840 C   0  0  0  0  0  0  0  0  0  0  0  0
  2  1  1  0
  3  2  1  0
  3 12  2  0
 12 11  1  0
 11 10  2  0
 10  9  1  0
  9  8  1  0
  8  7  1  0
  7  6  1  0
  6  5  1  0
  5  4  1  0
  4  3  1  0
  9  4  2  0
M  END
>  <id>  (334) 
6122

>  <inchikey>  (334) 
WATIARBIFSKYKC-UHFFFAOYSA-N

>  <alias>  (334) 
c1379c

>  <smiles>  (334) 
OCc1cccc2c1OCCO2

>  <path>  (334) 
/opt/xchem-fragalysis-2/maxwin/CHIKV_Mac_20240920/aligned_files/c1379c/c1379c_hippo.pdb

>  <compound>  (334) 
WATIARBIFSKYKC-UHFFFAOYSA-N

>  <target>  (334) 
CHIKV_Mac

>  <tags>  (334) 
['[Other] Adenine site', 'hits', '[Other] fragment screen']

>  <reference>  (334) 
None

>  <exports>  (334) 
['/opt/xchem-fragalysis-2/maxwin/CHIKV_HIPPO/web_resources/hit_poses.sdf', '/opt/xchem-fragalysis-2/maxwin/CHIKV_HIPPO/web/web_resources/hit_poses.sdf', '/opt/xchem-fragalysis-2/maxwin/CHIKV_HIPPO/web2/web_resources/hit_poses.sdf']

>  <observation_longname>  (334) 
nan

>  <ConformerSites alias>  (334) 
nan

>  <CanonSites alias>  (334) 
nan

>  <CrystalformSites alias>  (334) 
nan

>  <Quatassemblies alias>  (334) 
nan

>  <Crystalforms alias>  (334) 
nan

$$$$
c1379d
     RDKit          3D

 12 13  0  0  0  0  0  0  0  0999 V2000
   15.7960    8.7600   14.8510 O   0  0  0  0  0  0  0  0  0  0  0  0
   14.5240    9.2850   14.5030 C   0  0  0  0  0  0  0  0  0  0  0  0
   14.6110   10.3720   13.4600 C   0  0  0  0  0  0  0  0  0  0  0  0
   14.9000   10.0710   12.1290 C   0  0  0  0  0  0  0  0  0  0  0  0
   15.2540    8.7780   11.8460 O   0  0  0  0  0  0  0  0  0  0  0  0
   15.2020    8.4350   10.4550 C   0  0  0  0  0  0  0  0  0  0  0  0
   15.7860    9.5270    9.6140 C   0  0  0  0  0  0  0  0  0  0  0  0
   15.0770   10.7620    9.8150 O   0  0  0  0  0  0  0  0  0  0  0  0
   14.8560   11.0570   11.1380 C   0  0  0  0  0  0  0  0  0  0  0  0
   14.5540   12.3670   11.4760 C   0  0  0  0  0  0  0  0  0  0  0  0
   14.3010   12.6820   12.8030 C   0  0  0  0  0  0  0  0  0  0  0  0
   14.3260   11.6970   13.7800 C   0  0  0  0  0  0  0  0  0  0  0  0
  2  1  1  0
  3  2  1  0
  3 12  2  0
 12 11  1  0
 11 10  2  0
 10  9  1  0
  9  8  1  0
  8  7  1  0
  7  6  1  0
  6  5  1  0
  5  4  1  0
  4  3  1  0
  9  4  2  0
M  END
>  <id>  (335) 
6123

>  <inchikey>  (335) 
WATIARBIFSKYKC-UHFFFAOYSA-N

>  <alias>  (335) 
c1379d

>  <smiles>  (335) 
OCc1cccc2c1OCCO2

>  <path>  (335) 
/opt/xchem-fragalysis-2/maxwin/CHIKV_Mac_20240920/aligned_files/c1379d/c1379d_hippo.pdb

>  <compound>  (335) 
WATIARBIFSKYKC-UHFFFAOYSA-N

>  <target>  (335) 
CHIKV_Mac

>  <tags>  (335) 
['[Other] Adenine site', 'hits', '[Other] fragment screen']

>  <reference>  (335) 
None

>  <exports>  (335) 
['/opt/xchem-fragalysis-2/maxwin/CHIKV_HIPPO/web_resources/hit_poses.sdf', '/opt/xchem-fragalysis-2/maxwin/CHIKV_HIPPO/web/web_resources/hit_poses.sdf', '/opt/xchem-fragalysis-2/maxwin/CHIKV_HIPPO/web2/web_resources/hit_poses.sdf']

>  <observation_longname>  (335) 
CHIKV_MacB-x1379_C_401_1_CHIKV_MacB-x2352+C+401+1

>  <ConformerSites alias>  (335) 
1a - c2352/C/401

>  <CanonSites alias>  (335) 
1 - c2352/C/401/1

>  <CrystalformSites alias>  (335) 
F1a - c0270/A/304

>  <Quatassemblies alias>  (335) 
A1 - monomer

>  <Crystalforms alias>  (335) 
F1 - P31-4fold-NCS

$$$$
c1397a
     RDKit          3D

  9 10  0  0  0  0  0  0  0  0999 V2000
   17.7440   12.6450   12.0090 C   0  0  0  0  0  0  0  0  0  0  0  0
   17.4290   13.7280   12.8190 C   0  0  0  0  0  0  0  0  0  0  0  0
   18.4050   14.6570   13.1740 C   0  0  0  0  0  0  0  0  0  0  0  0
   19.7130   14.5160   12.7290 C   0  0  0  0  0  0  0  0  0  0  0  0
   19.0520   12.4820   11.5430 C   0  0  0  0  0  0  0  0  0  0  0  0
   19.7540   11.5570   10.7230 C   0  0  0  0  0  0  0  0  0  0  0  0
   20.0240   13.4270   11.9170 C   0  0  0  0  0  0  0  0  0  0  0  0
   21.1860   13.0330   11.3350 N   0  0  0  0  0  0  0  0  0  0  0  0
   21.0250   11.8910   10.6050 N   0  0  0  0  0  0  0  0  0  0  0  0
  6  9  2  0
  9  8  1  0
  8  7  1  0
  7  4  1  0
  4  3  2  0
  3  2  1  0
  2  1  2  0
  5  1  1  0
  6  5  1  0
  7  5  2  0
M  END
>  <id>  (336) 
6124

>  <inchikey>  (336) 
BAXOFTOLAUCFNW-UHFFFAOYSA-N

>  <alias>  (336) 
c1397a

>  <smiles>  (336) 
c1ccc2[nH]ncc2c1

>  <path>  (336) 
/opt/xchem-fragalysis-2/maxwin/CHIKV_Mac_20240920/aligned_files/c1397a/c1397a_hippo.pdb

>  <compound>  (336) 
BAXOFTOLAUCFNW-UHFFFAOYSA-N

>  <target>  (336) 
CHIKV_Mac

>  <tags>  (336) 
['hits', '[Other] Arg144 pocket', '[Other] fragment screen']

>  <reference>  (336) 
None

>  <exports>  (336) 
['/opt/xchem-fragalysis-2/maxwin/CHIKV_HIPPO/web_resources/hit_poses.sdf', '/opt/xchem-fragalysis-2/maxwin/CHIKV_HIPPO/web/web_resources/hit_poses.sdf', '/opt/xchem-fragalysis-2/maxwin/CHIKV_HIPPO/web2/web_resources/hit_poses.sdf']

>  <observation_longname>  (336) 
nan

>  <ConformerSites alias>  (336) 
nan

>  <CanonSites alias>  (336) 
nan

>  <CrystalformSites alias>  (336) 
nan

>  <Quatassemblies alias>  (336) 
nan

>  <Crystalforms alias>  (336) 
nan

$$$$
c1397b
     RDKit          3D

  9 10  0  0  0  0  0  0  0  0999 V2000
   21.5550   13.6630   12.2910 C   0  0  0  0  0  0  0  0  0  0  0  0
   22.4060   12.8150   11.5930 C   0  0  0  0  0  0  0  0  0  0  0  0
   21.8930   11.7790   10.8170 C   0  0  0  0  0  0  0  0  0  0  0  0
   20.5220   11.5720   10.7260 C   0  0  0  0  0  0  0  0  0  0  0  0
   20.1710   13.4760   12.2240 C   0  0  0  0  0  0  0  0  0  0  0  0
   19.0120   14.0810   12.7790 C   0  0  0  0  0  0  0  0  0  0  0  0
   19.6740   12.4200   11.4370 C   0  0  0  0  0  0  0  0  0  0  0  0
   18.3200   12.4520   11.5640 N   0  0  0  0  0  0  0  0  0  0  0  0
   17.9140   13.4670   12.3830 N   0  0  0  0  0  0  0  0  0  0  0  0
  6  9  2  0
  9  8  1  0
  8  7  1  0
  7  4  1  0
  4  3  2  0
  3  2  1  0
  2  1  2  0
  5  1  1  0
  6  5  1  0
  7  5  2  0
M  END
>  <id>  (337) 
6125

>  <inchikey>  (337) 
BAXOFTOLAUCFNW-UHFFFAOYSA-N

>  <alias>  (337) 
c1397b

>  <smiles>  (337) 
c1ccc2[nH]ncc2c1

>  <path>  (337) 
/opt/xchem-fragalysis-2/maxwin/CHIKV_Mac_20240920/aligned_files/c1397b/c1397b_hippo.pdb

>  <compound>  (337) 
BAXOFTOLAUCFNW-UHFFFAOYSA-N

>  <target>  (337) 
CHIKV_Mac

>  <tags>  (337) 
['hits', '[Other] Arg144 pocket', '[Other] fragment screen']

>  <reference>  (337) 
None

>  <exports>  (337) 
['/opt/xchem-fragalysis-2/maxwin/CHIKV_HIPPO/web_resources/hit_poses.sdf', '/opt/xchem-fragalysis-2/maxwin/CHIKV_HIPPO/web/web_resources/hit_poses.sdf', '/opt/xchem-fragalysis-2/maxwin/CHIKV_HIPPO/web2/web_resources/hit_poses.sdf']

>  <observation_longname>  (337) 
nan

>  <ConformerSites alias>  (337) 
nan

>  <CanonSites alias>  (337) 
nan

>  <CrystalformSites alias>  (337) 
nan

>  <Quatassemblies alias>  (337) 
nan

>  <Crystalforms alias>  (337) 
nan

$$$$
c1402a
     RDKit          3D

  9 10  0  0  0  0  0  0  0  0999 V2000
   14.2570   12.7030   11.7290 N   0  0  0  0  0  0  0  0  0  0  0  0
   14.2210   12.6850   13.1020 C   0  0  0  0  0  0  0  0  0  0  0  0
   14.5500   11.4400   11.2960 C   0  0  0  0  0  0  0  0  0  0  0  0
   14.7000   10.6080   12.4310 C   0  0  0  0  0  0  0  0  0  0  0  0
   14.4770   11.4340   13.5640 C   0  0  0  0  0  0  0  0  0  0  0  0
   14.6940   11.0690   10.0180 N   0  0  0  0  0  0  0  0  0  0  0  0
   15.0020    9.7710    9.8330 C   0  0  0  0  0  0  0  0  0  0  0  0
   15.1620    8.8470   10.8660 C   0  0  0  0  0  0  0  0  0  0  0  0
   15.0170    9.2700   12.1800 C   0  0  0  0  0  0  0  0  0  0  0  0
  2  5  2  0
  5  4  1  0
  4  9  2  0
  9  8  1  0
  8  7  2  0
  7  6  1  0
  6  3  2  0
  4  3  1  0
  3  1  1  0
  2  1  1  0
M  END
>  <id>  (338) 
6126

>  <inchikey>  (338) 
MVXVYAKCVDQRLW-UHFFFAOYSA-N

>  <alias>  (338) 
c1402a

>  <smiles>  (338) 
c1cnc2[nH]ccc2c1

>  <path>  (338) 
/opt/xchem-fragalysis-2/maxwin/CHIKV_Mac_20240920/aligned_files/c1402a/c1402a_hippo.pdb

>  <compound>  (338) 
MVXVYAKCVDQRLW-UHFFFAOYSA-N

>  <target>  (338) 
CHIKV_Mac

>  <tags>  (338) 
['[Other] Adenine site', 'hits', '[Other] fragment screen']

>  <reference>  (338) 
None

>  <exports>  (338) 
['/opt/xchem-fragalysis-2/maxwin/CHIKV_HIPPO/web_resources/hit_poses.sdf', '/opt/xchem-fragalysis-2/maxwin/CHIKV_HIPPO/web/web_resources/hit_poses.sdf', '/opt/xchem-fragalysis-2/maxwin/CHIKV_HIPPO/web2/web_resources/hit_poses.sdf']

>  <observation_longname>  (338) 
nan

>  <ConformerSites alias>  (338) 
nan

>  <CanonSites alias>  (338) 
nan

>  <CrystalformSites alias>  (338) 
nan

>  <Quatassemblies alias>  (338) 
nan

>  <Crystalforms alias>  (338) 
nan

$$$$
c1402b
     RDKit          3D

  9 10  0  0  0  0  0  0  0  0999 V2000
   20.7770   11.2490   10.3420 N   0  0  0  0  0  0  0  0  0  0  0  0
   22.0470   11.7620   10.4550 C   0  0  0  0  0  0  0  0  0  0  0  0
   19.9280   12.0570   11.0430 C   0  0  0  0  0  0  0  0  0  0  0  0
   20.6890   13.1120   11.6060 C   0  0  0  0  0  0  0  0  0  0  0  0
   22.0370   12.8870   11.2150 C   0  0  0  0  0  0  0  0  0  0  0  0
   18.6030   11.8810   11.1690 N   0  0  0  0  0  0  0  0  0  0  0  0
   17.9720   12.8230   11.8960 C   0  0  0  0  0  0  0  0  0  0  0  0
   18.6050   13.9160   12.4900 C   0  0  0  0  0  0  0  0  0  0  0  0
   19.9790   14.0620   12.3440 C   0  0  0  0  0  0  0  0  0  0  0  0
  2  5  2  0
  5  4  1  0
  4  9  2  0
  9  8  1  0
  8  7  2  0
  7  6  1  0
  6  3  2  0
  4  3  1  0
  3  1  1  0
  2  1  1  0
M  END
>  <id>  (339) 
6127

>  <inchikey>  (339) 
MVXVYAKCVDQRLW-UHFFFAOYSA-N

>  <alias>  (339) 
c1402b

>  <smiles>  (339) 
c1cnc2[nH]ccc2c1

>  <path>  (339) 
/opt/xchem-fragalysis-2/maxwin/CHIKV_Mac_20240920/aligned_files/c1402b/c1402b_hippo.pdb

>  <compound>  (339) 
MVXVYAKCVDQRLW-UHFFFAOYSA-N

>  <target>  (339) 
CHIKV_Mac

>  <tags>  (339) 
['hits', '[Other] Arg144 pocket', '[Other] fragment screen']

>  <reference>  (339) 
None

>  <exports>  (339) 
['/opt/xchem-fragalysis-2/maxwin/CHIKV_HIPPO/web_resources/hit_poses.sdf', '/opt/xchem-fragalysis-2/maxwin/CHIKV_HIPPO/web/web_resources/hit_poses.sdf', '/opt/xchem-fragalysis-2/maxwin/CHIKV_HIPPO/web2/web_resources/hit_poses.sdf']

>  <observation_longname>  (339) 
nan

>  <ConformerSites alias>  (339) 
nan

>  <CanonSites alias>  (339) 
nan

>  <CrystalformSites alias>  (339) 
nan

>  <Quatassemblies alias>  (339) 
nan

>  <Crystalforms alias>  (339) 
nan

$$$$
c1402c
     RDKit          3D

  9 10  0  0  0  0  0  0  0  0999 V2000
   14.3700   12.6430   11.6700 N   0  0  0  0  0  0  0  0  0  0  0  0
   14.3500   12.7080   13.0430 C   0  0  0  0  0  0  0  0  0  0  0  0
   14.6070   11.3470   11.3110 C   0  0  0  0  0  0  0  0  0  0  0  0
   14.7350   10.5780   12.4930 C   0  0  0  0  0  0  0  0  0  0  0  0
   14.5700   11.4800   13.5780 C   0  0  0  0  0  0  0  0  0  0  0  0
   14.7200   10.8950   10.0560 N   0  0  0  0  0  0  0  0  0  0  0  0
   14.9790    9.5820    9.9490 C   0  0  0  0  0  0  0  0  0  0  0  0
   15.1210    8.7170   11.0330 C   0  0  0  0  0  0  0  0  0  0  0  0
   14.9940    9.2190   12.3220 C   0  0  0  0  0  0  0  0  0  0  0  0
  2  5  2  0
  5  4  1  0
  4  9  2  0
  9  8  1  0
  8  7  2  0
  7  6  1  0
  6  3  2  0
  4  3  1  0
  3  1  1  0
  2  1  1  0
M  END
>  <id>  (340) 
6128

>  <inchikey>  (340) 
MVXVYAKCVDQRLW-UHFFFAOYSA-N

>  <alias>  (340) 
c1402c

>  <smiles>  (340) 
c1cnc2[nH]ccc2c1

>  <path>  (340) 
/opt/xchem-fragalysis-2/maxwin/CHIKV_Mac_20240920/aligned_files/c1402c/c1402c_hippo.pdb

>  <compound>  (340) 
MVXVYAKCVDQRLW-UHFFFAOYSA-N

>  <target>  (340) 
CHIKV_Mac

>  <tags>  (340) 
['[Other] Adenine site', 'hits', '[Other] fragment screen']

>  <reference>  (340) 
None

>  <exports>  (340) 
['/opt/xchem-fragalysis-2/maxwin/CHIKV_HIPPO/web_resources/hit_poses.sdf', '/opt/xchem-fragalysis-2/maxwin/CHIKV_HIPPO/web/web_resources/hit_poses.sdf', '/opt/xchem-fragalysis-2/maxwin/CHIKV_HIPPO/web2/web_resources/hit_poses.sdf']

>  <observation_longname>  (340) 
nan

>  <ConformerSites alias>  (340) 
nan

>  <CanonSites alias>  (340) 
nan

>  <CrystalformSites alias>  (340) 
nan

>  <Quatassemblies alias>  (340) 
nan

>  <Crystalforms alias>  (340) 
nan

$$$$
c1402d
     RDKit          3D

  9 10  0  0  0  0  0  0  0  0999 V2000
   21.5800   13.7850   11.5320 N   0  0  0  0  0  0  0  0  0  0  0  0
   22.4530   12.9910   10.8290 C   0  0  0  0  0  0  0  0  0  0  0  0
   20.3460   13.2020   11.4860 C   0  0  0  0  0  0  0  0  0  0  0  0
   20.4520   12.0080   10.7300 C   0  0  0  0  0  0  0  0  0  0  0  0
   21.8090   11.9080   10.3270 C   0  0  0  0  0  0  0  0  0  0  0  0
   19.2320   13.6810   12.0610 N   0  0  0  0  0  0  0  0  0  0  0  0
   18.1320   12.9230   11.8830 C   0  0  0  0  0  0  0  0  0  0  0  0
   18.1110   11.7260   11.1650 C   0  0  0  0  0  0  0  0  0  0  0  0
   19.2810   11.2660   10.5790 C   0  0  0  0  0  0  0  0  0  0  0  0
  2  5  2  0
  5  4  1  0
  4  9  2  0
  9  8  1  0
  8  7  2  0
  7  6  1  0
  6  3  2  0
  4  3  1  0
  3  1  1  0
  2  1  1  0
M  END
>  <id>  (341) 
6129

>  <inchikey>  (341) 
MVXVYAKCVDQRLW-UHFFFAOYSA-N

>  <alias>  (341) 
c1402d

>  <smiles>  (341) 
c1cnc2[nH]ccc2c1

>  <path>  (341) 
/opt/xchem-fragalysis-2/maxwin/CHIKV_Mac_20240920/aligned_files/c1402d/c1402d_hippo.pdb

>  <compound>  (341) 
MVXVYAKCVDQRLW-UHFFFAOYSA-N

>  <target>  (341) 
CHIKV_Mac

>  <tags>  (341) 
['hits', '[Other] Arg144 pocket', '[Other] fragment screen']

>  <reference>  (341) 
None

>  <exports>  (341) 
['/opt/xchem-fragalysis-2/maxwin/CHIKV_HIPPO/web_resources/hit_poses.sdf', '/opt/xchem-fragalysis-2/maxwin/CHIKV_HIPPO/web/web_resources/hit_poses.sdf', '/opt/xchem-fragalysis-2/maxwin/CHIKV_HIPPO/web2/web_resources/hit_poses.sdf']

>  <observation_longname>  (341) 
nan

>  <ConformerSites alias>  (341) 
nan

>  <CanonSites alias>  (341) 
nan

>  <CrystalformSites alias>  (341) 
nan

>  <Quatassemblies alias>  (341) 
nan

>  <Crystalforms alias>  (341) 
nan

$$$$
c1402f
     RDKit          3D

  9 10  0  0  0  0  0  0  0  0999 V2000
   21.2420   11.7310    9.9280 N   0  0  0  0  0  0  0  0  0  0  0  0
   22.3540   12.5370    9.9590 C   0  0  0  0  0  0  0  0  0  0  0  0
   20.2870   12.2970   10.7250 C   0  0  0  0  0  0  0  0  0  0  0  0
   20.8160   13.4940   11.2660 C   0  0  0  0  0  0  0  0  0  0  0  0
   22.1360   13.6140   10.7560 C   0  0  0  0  0  0  0  0  0  0  0  0
   19.0660   11.7960   10.9550 N   0  0  0  0  0  0  0  0  0  0  0  0
   18.2990   12.5320   11.7820 C   0  0  0  0  0  0  0  0  0  0  0  0
   18.7040   13.7260   12.3770 C   0  0  0  0  0  0  0  0  0  0  0  0
   19.9770   14.2130   12.1160 C   0  0  0  0  0  0  0  0  0  0  0  0
  2  5  2  0
  5  4  1  0
  4  9  2  0
  9  8  1  0
  8  7  2  0
  7  6  1  0
  6  3  2  0
  4  3  1  0
  3  1  1  0
  2  1  1  0
M  END
>  <id>  (342) 
6130

>  <inchikey>  (342) 
MVXVYAKCVDQRLW-UHFFFAOYSA-N

>  <alias>  (342) 
c1402f

>  <smiles>  (342) 
c1cnc2[nH]ccc2c1

>  <path>  (342) 
/opt/xchem-fragalysis-2/maxwin/CHIKV_Mac_20240920/aligned_files/c1402f/c1402f_hippo.pdb

>  <compound>  (342) 
MVXVYAKCVDQRLW-UHFFFAOYSA-N

>  <target>  (342) 
CHIKV_Mac

>  <tags>  (342) 
['hits', '[Other] Arg144 pocket', '[Other] fragment screen']

>  <reference>  (342) 
None

>  <exports>  (342) 
['/opt/xchem-fragalysis-2/maxwin/CHIKV_HIPPO/web_resources/hit_poses.sdf', '/opt/xchem-fragalysis-2/maxwin/CHIKV_HIPPO/web/web_resources/hit_poses.sdf', '/opt/xchem-fragalysis-2/maxwin/CHIKV_HIPPO/web2/web_resources/hit_poses.sdf']

>  <observation_longname>  (342) 
nan

>  <ConformerSites alias>  (342) 
nan

>  <CanonSites alias>  (342) 
nan

>  <CrystalformSites alias>  (342) 
nan

>  <Quatassemblies alias>  (342) 
nan

>  <Crystalforms alias>  (342) 
nan

$$$$
c1402e
     RDKit          3D

  9 10  0  0  0  0  0  0  0  0999 V2000
   14.4710   12.7230   11.3830 N   0  0  0  0  0  0  0  0  0  0  0  0
   14.3720   12.7890   12.7530 C   0  0  0  0  0  0  0  0  0  0  0  0
   14.7150   11.4220   11.0370 C   0  0  0  0  0  0  0  0  0  0  0  0
   14.7650   10.6520   12.2270 C   0  0  0  0  0  0  0  0  0  0  0  0
   14.5370   11.5570   13.3010 C   0  0  0  0  0  0  0  0  0  0  0  0
   14.8780   10.9610    9.7850 N   0  0  0  0  0  0  0  0  0  0  0  0
   15.0930    9.6350    9.6910 C   0  0  0  0  0  0  0  0  0  0  0  0
   15.1550    8.7680   10.7880 C   0  0  0  0  0  0  0  0  0  0  0  0
   14.9970    9.2840   12.0700 C   0  0  0  0  0  0  0  0  0  0  0  0
  2  5  2  0
  5  4  1  0
  4  9  2  0
  9  8  1  0
  8  7  2  0
  7  6  1  0
  6  3  2  0
  4  3  1  0
  3  1  1  0
  2  1  1  0
M  END
>  <id>  (343) 
6131

>  <inchikey>  (343) 
MVXVYAKCVDQRLW-UHFFFAOYSA-N

>  <alias>  (343) 
c1402e

>  <smiles>  (343) 
c1cnc2[nH]ccc2c1

>  <path>  (343) 
/opt/xchem-fragalysis-2/maxwin/CHIKV_Mac_20240920/aligned_files/c1402e/c1402e_hippo.pdb

>  <compound>  (343) 
MVXVYAKCVDQRLW-UHFFFAOYSA-N

>  <target>  (343) 
CHIKV_Mac

>  <tags>  (343) 
['[Other] Adenine site', 'hits', '[Other] fragment screen']

>  <reference>  (343) 
None

>  <exports>  (343) 
['/opt/xchem-fragalysis-2/maxwin/CHIKV_HIPPO/web_resources/hit_poses.sdf', '/opt/xchem-fragalysis-2/maxwin/CHIKV_HIPPO/web/web_resources/hit_poses.sdf', '/opt/xchem-fragalysis-2/maxwin/CHIKV_HIPPO/web2/web_resources/hit_poses.sdf']

>  <observation_longname>  (343) 
nan

>  <ConformerSites alias>  (343) 
nan

>  <CanonSites alias>  (343) 
nan

>  <CrystalformSites alias>  (343) 
nan

>  <Quatassemblies alias>  (343) 
nan

>  <Crystalforms alias>  (343) 
nan

$$$$
c1402g
     RDKit          3D

  9 10  0  0  0  0  0  0  0  0999 V2000
   15.0500   10.3920    9.8580 N   0  0  0  0  0  0  0  0  0  0  0  0
   15.2950    9.0920   10.2330 C   0  0  0  0  0  0  0  0  0  0  0  0
   14.7310   11.1050   10.9840 C   0  0  0  0  0  0  0  0  0  0  0  0
   14.7830   10.2240   12.0940 C   0  0  0  0  0  0  0  0  0  0  0  0
   15.1370    8.9480   11.5760 C   0  0  0  0  0  0  0  0  0  0  0  0
   14.4490   12.4120   11.0270 N   0  0  0  0  0  0  0  0  0  0  0  0
   14.2200   12.9080   12.2550 C   0  0  0  0  0  0  0  0  0  0  0  0
   14.2460   12.1450   13.4260 C   0  0  0  0  0  0  0  0  0  0  0  0
   14.5260   10.7880   13.3430 C   0  0  0  0  0  0  0  0  0  0  0  0
  2  5  2  0
  5  4  1  0
  4  9  2  0
  9  8  1  0
  8  7  2  0
  7  6  1  0
  6  3  2  0
  4  3  1  0
  3  1  1  0
  2  1  1  0
M  END
>  <id>  (344) 
6132

>  <inchikey>  (344) 
MVXVYAKCVDQRLW-UHFFFAOYSA-N

>  <alias>  (344) 
c1402g

>  <smiles>  (344) 
c1cnc2[nH]ccc2c1

>  <path>  (344) 
/opt/xchem-fragalysis-2/maxwin/CHIKV_Mac_20240920/aligned_files/c1402g/c1402g_hippo.pdb

>  <compound>  (344) 
MVXVYAKCVDQRLW-UHFFFAOYSA-N

>  <target>  (344) 
CHIKV_Mac

>  <tags>  (344) 
['[Other] Adenine site', 'hits', '[Other] fragment screen']

>  <reference>  (344) 
None

>  <exports>  (344) 
['/opt/xchem-fragalysis-2/maxwin/CHIKV_HIPPO/web_resources/hit_poses.sdf', '/opt/xchem-fragalysis-2/maxwin/CHIKV_HIPPO/web/web_resources/hit_poses.sdf', '/opt/xchem-fragalysis-2/maxwin/CHIKV_HIPPO/web2/web_resources/hit_poses.sdf']

>  <observation_longname>  (344) 
nan

>  <ConformerSites alias>  (344) 
nan

>  <CanonSites alias>  (344) 
nan

>  <CrystalformSites alias>  (344) 
nan

>  <Quatassemblies alias>  (344) 
nan

>  <Crystalforms alias>  (344) 
nan

$$$$
c1406a
     RDKit          3D

  8  8  0  0  0  0  0  0  0  0999 V2000
   14.1130   13.0930   11.2900 N   0  0  0  0  0  0  0  0  0  0  0  0
   14.3610   11.7730   11.3160 C   0  0  0  0  0  0  0  0  0  0  0  0
   14.5950   11.1000   12.5360 C   0  0  0  0  0  0  0  0  0  0  0  0
   14.7750    9.7310   12.5100 C   0  0  0  0  0  0  0  0  0  0  0  0
   14.3380   11.1040   10.1380 N   0  0  0  0  0  0  0  0  0  0  0  0
   14.5240    9.7760   10.1640 C   0  0  0  0  0  0  0  0  0  0  0  0
   14.7380    9.0290   11.3170 C   0  0  0  0  0  0  0  0  0  0  0  0
   14.9090    7.5310   11.2770 C   0  0  0  0  0  0  0  0  0  0  0  0
  8  7  1  0
  7  4  2  0
  4  3  1  0
  3  2  2  0
  2  1  1  0
  5  2  1  0
  6  5  2  0
  7  6  1  0
M  END
>  <id>  (345) 
6133

>  <inchikey>  (345) 
CMBSSVKZOPZBKW-UHFFFAOYSA-N

>  <alias>  (345) 
c1406a

>  <smiles>  (345) 
Cc1ccc(N)nc1

>  <path>  (345) 
/opt/xchem-fragalysis-2/maxwin/CHIKV_Mac_20240920/aligned_files/c1406a/c1406a_hippo.pdb

>  <compound>  (345) 
CMBSSVKZOPZBKW-UHFFFAOYSA-N

>  <target>  (345) 
CHIKV_Mac

>  <tags>  (345) 
['[Other] Adenine site', 'hits', '[Other] fragment screen']

>  <reference>  (345) 
None

>  <exports>  (345) 
['/opt/xchem-fragalysis-2/maxwin/CHIKV_HIPPO/web_resources/hit_poses.sdf', '/opt/xchem-fragalysis-2/maxwin/CHIKV_HIPPO/web/web_resources/hit_poses.sdf', '/opt/xchem-fragalysis-2/maxwin/CHIKV_HIPPO/web2/web_resources/hit_poses.sdf']

>  <observation_longname>  (345) 
nan

>  <ConformerSites alias>  (345) 
nan

>  <CanonSites alias>  (345) 
nan

>  <CrystalformSites alias>  (345) 
nan

>  <Quatassemblies alias>  (345) 
nan

>  <Crystalforms alias>  (345) 
nan

$$$$
c1406b
     RDKit          3D

  8  8  0  0  0  0  0  0  0  0999 V2000
   14.1340   13.3060   11.8600 N   0  0  0  0  0  0  0  0  0  0  0  0
   14.3650   12.0220   11.5430 C   0  0  0  0  0  0  0  0  0  0  0  0
   14.4190   11.0230   12.5410 C   0  0  0  0  0  0  0  0  0  0  0  0
   14.6070    9.7110   12.1520 C   0  0  0  0  0  0  0  0  0  0  0  0
   14.5110   11.7130   10.2320 N   0  0  0  0  0  0  0  0  0  0  0  0
   14.6980   10.4260    9.9040 C   0  0  0  0  0  0  0  0  0  0  0  0
   14.7470    9.3780   10.8130 C   0  0  0  0  0  0  0  0  0  0  0  0
   14.9080    7.9460   10.3690 C   0  0  0  0  0  0  0  0  0  0  0  0
  8  7  1  0
  7  4  2  0
  4  3  1  0
  3  2  2  0
  2  1  1  0
  5  2  1  0
  6  5  2  0
  7  6  1  0
M  END
>  <id>  (346) 
6134

>  <inchikey>  (346) 
CMBSSVKZOPZBKW-UHFFFAOYSA-N

>  <alias>  (346) 
c1406b

>  <smiles>  (346) 
Cc1ccc(N)nc1

>  <path>  (346) 
/opt/xchem-fragalysis-2/maxwin/CHIKV_Mac_20240920/aligned_files/c1406b/c1406b_hippo.pdb

>  <compound>  (346) 
CMBSSVKZOPZBKW-UHFFFAOYSA-N

>  <target>  (346) 
CHIKV_Mac

>  <tags>  (346) 
['[Other] Adenine site', 'hits', '[Other] fragment screen']

>  <reference>  (346) 
None

>  <exports>  (346) 
['/opt/xchem-fragalysis-2/maxwin/CHIKV_HIPPO/web_resources/hit_poses.sdf', '/opt/xchem-fragalysis-2/maxwin/CHIKV_HIPPO/web/web_resources/hit_poses.sdf', '/opt/xchem-fragalysis-2/maxwin/CHIKV_HIPPO/web2/web_resources/hit_poses.sdf']

>  <observation_longname>  (346) 
nan

>  <ConformerSites alias>  (346) 
nan

>  <CanonSites alias>  (346) 
nan

>  <CrystalformSites alias>  (346) 
nan

>  <Quatassemblies alias>  (346) 
nan

>  <Crystalforms alias>  (346) 
nan

$$$$
c1410a
     RDKit          3D

 11 12  0  0  0  0  0  0  0  0999 V2000
   15.3170    6.7890   11.4800 F   0  0  0  0  0  0  0  0  0  0  0  0
   15.1540    8.1160   11.2450 C   0  0  0  0  0  0  0  0  0  0  0  0
   15.0470    8.5370    9.9370 C   0  0  0  0  0  0  0  0  0  0  0  0
   14.8700    9.8880    9.6860 C   0  0  0  0  0  0  0  0  0  0  0  0
   15.1000    8.9610   12.3310 C   0  0  0  0  0  0  0  0  0  0  0  0
   14.9110   10.3100   12.0550 C   0  0  0  0  0  0  0  0  0  0  0  0
   14.7920   10.7880   10.7460 C   0  0  0  0  0  0  0  0  0  0  0  0
   14.5930   12.1640   10.6340 N   0  0  0  0  0  0  0  0  0  0  0  0
   14.7730   11.6290   13.1790 S   0  0  0  0  0  0  0  0  0  0  0  0
   14.5640   12.7210   11.8160 C   0  0  0  0  0  0  0  0  0  0  0  0
   14.3820   14.0220   12.0320 N   0  0  0  0  0  0  0  0  0  0  0  0
 11 10  1  0
 10  8  2  0
  8  7  1  0
  7  4  2  0
  4  3  1  0
  3  2  2  0
  2  1  1  0
  5  2  1  0
  6  5  2  0
  7  6  1  0
  9  6  1  0
 10  9  1  0
M  END
>  <id>  (347) 
6135

>  <inchikey>  (347) 
CJLUXPZQUXVJNF-UHFFFAOYSA-N

>  <alias>  (347) 
c1410a

>  <smiles>  (347) 
Nc1nc2ccc(F)cc2s1

>  <path>  (347) 
/opt/xchem-fragalysis-2/maxwin/CHIKV_Mac_20240920/aligned_files/c1410a/c1410a_hippo.pdb

>  <compound>  (347) 
CJLUXPZQUXVJNF-UHFFFAOYSA-N

>  <target>  (347) 
CHIKV_Mac

>  <tags>  (347) 
['[Other] Adenine site', 'hits', '[Other] fragment screen']

>  <reference>  (347) 
None

>  <exports>  (347) 
['/opt/xchem-fragalysis-2/maxwin/CHIKV_HIPPO/web_resources/hit_poses.sdf', '/opt/xchem-fragalysis-2/maxwin/CHIKV_HIPPO/web/web_resources/hit_poses.sdf', '/opt/xchem-fragalysis-2/maxwin/CHIKV_HIPPO/web2/web_resources/hit_poses.sdf']

>  <observation_longname>  (347) 
nan

>  <ConformerSites alias>  (347) 
nan

>  <CanonSites alias>  (347) 
nan

>  <CrystalformSites alias>  (347) 
nan

>  <Quatassemblies alias>  (347) 
nan

>  <Crystalforms alias>  (347) 
nan

$$$$
c1410b
     RDKit          3D

 11 12  0  0  0  0  0  0  0  0999 V2000
   15.3930    6.7020   11.8230 F   0  0  0  0  0  0  0  0  0  0  0  0
   15.2930    8.0200   11.5560 C   0  0  0  0  0  0  0  0  0  0  0  0
   15.3270    8.4210   10.2400 C   0  0  0  0  0  0  0  0  0  0  0  0
   15.1380    9.7630    9.9530 C   0  0  0  0  0  0  0  0  0  0  0  0
   15.1200    8.8730   12.6190 C   0  0  0  0  0  0  0  0  0  0  0  0
   14.9440   10.2120   12.3120 C   0  0  0  0  0  0  0  0  0  0  0  0
   14.9310   10.6700   10.9900 C   0  0  0  0  0  0  0  0  0  0  0  0
   14.7070   12.0350   10.8380 N   0  0  0  0  0  0  0  0  0  0  0  0
   14.7010   11.5470   13.3990 S   0  0  0  0  0  0  0  0  0  0  0  0
   14.5740   12.6120   12.0030 C   0  0  0  0  0  0  0  0  0  0  0  0
   14.3110   13.9060   12.1690 N   0  0  0  0  0  0  0  0  0  0  0  0
 11 10  1  0
 10  8  2  0
  8  7  1  0
  7  4  2  0
  4  3  1  0
  3  2  2  0
  2  1  1  0
  5  2  1  0
  6  5  2  0
  7  6  1  0
  9  6  1  0
 10  9  1  0
M  END
>  <id>  (348) 
6136

>  <inchikey>  (348) 
CJLUXPZQUXVJNF-UHFFFAOYSA-N

>  <alias>  (348) 
c1410b

>  <smiles>  (348) 
Nc1nc2ccc(F)cc2s1

>  <path>  (348) 
/opt/xchem-fragalysis-2/maxwin/CHIKV_Mac_20240920/aligned_files/c1410b/c1410b_hippo.pdb

>  <compound>  (348) 
CJLUXPZQUXVJNF-UHFFFAOYSA-N

>  <target>  (348) 
CHIKV_Mac

>  <tags>  (348) 
['[Other] Adenine site', 'hits', '[Other] fragment screen']

>  <reference>  (348) 
None

>  <exports>  (348) 
['/opt/xchem-fragalysis-2/maxwin/CHIKV_HIPPO/web_resources/hit_poses.sdf', '/opt/xchem-fragalysis-2/maxwin/CHIKV_HIPPO/web/web_resources/hit_poses.sdf', '/opt/xchem-fragalysis-2/maxwin/CHIKV_HIPPO/web2/web_resources/hit_poses.sdf']

>  <observation_longname>  (348) 
nan

>  <ConformerSites alias>  (348) 
nan

>  <CanonSites alias>  (348) 
nan

>  <CrystalformSites alias>  (348) 
nan

>  <Quatassemblies alias>  (348) 
nan

>  <Crystalforms alias>  (348) 
nan

$$$$
c1410c
     RDKit          3D

 11 12  0  0  0  0  0  0  0  0999 V2000
   15.3680    6.6860   11.4240 F   0  0  0  0  0  0  0  0  0  0  0  0
   15.2220    8.0250   11.2140 C   0  0  0  0  0  0  0  0  0  0  0  0
   15.2770    8.4860    9.9160 C   0  0  0  0  0  0  0  0  0  0  0  0
   15.1460    9.8450    9.6830 C   0  0  0  0  0  0  0  0  0  0  0  0
   15.0390    8.8400   12.3120 C   0  0  0  0  0  0  0  0  0  0  0  0
   14.9040   10.2010   12.0560 C   0  0  0  0  0  0  0  0  0  0  0  0
   14.9490   10.7150   10.7530 C   0  0  0  0  0  0  0  0  0  0  0  0
   14.7560   12.0920   10.6500 N   0  0  0  0  0  0  0  0  0  0  0  0
   14.6240   11.4970   13.1880 S   0  0  0  0  0  0  0  0  0  0  0  0
   14.5750   12.6220   11.8310 C   0  0  0  0  0  0  0  0  0  0  0  0
   14.3380   13.9120   12.0430 N   0  0  0  0  0  0  0  0  0  0  0  0
 11 10  1  0
 10  8  2  0
  8  7  1  0
  7  4  2  0
  4  3  1  0
  3  2  2  0
  2  1  1  0
  5  2  1  0
  6  5  2  0
  7  6  1  0
  9  6  1  0
 10  9  1  0
M  END
>  <id>  (349) 
6137

>  <inchikey>  (349) 
CJLUXPZQUXVJNF-UHFFFAOYSA-N

>  <alias>  (349) 
c1410c

>  <smiles>  (349) 
Nc1nc2ccc(F)cc2s1

>  <path>  (349) 
/opt/xchem-fragalysis-2/maxwin/CHIKV_Mac_20240920/aligned_files/c1410c/c1410c_hippo.pdb

>  <compound>  (349) 
CJLUXPZQUXVJNF-UHFFFAOYSA-N

>  <target>  (349) 
CHIKV_Mac

>  <tags>  (349) 
['[Other] Adenine site', 'hits', '[Other] fragment screen']

>  <reference>  (349) 
None

>  <exports>  (349) 
['/opt/xchem-fragalysis-2/maxwin/CHIKV_HIPPO/web_resources/hit_poses.sdf', '/opt/xchem-fragalysis-2/maxwin/CHIKV_HIPPO/web/web_resources/hit_poses.sdf', '/opt/xchem-fragalysis-2/maxwin/CHIKV_HIPPO/web2/web_resources/hit_poses.sdf']

>  <observation_longname>  (349) 
nan

>  <ConformerSites alias>  (349) 
nan

>  <CanonSites alias>  (349) 
nan

>  <CrystalformSites alias>  (349) 
nan

>  <Quatassemblies alias>  (349) 
nan

>  <Crystalforms alias>  (349) 
nan

$$$$
c1410d
     RDKit          3D

 11 12  0  0  0  0  0  0  0  0999 V2000
   15.4680    6.6410   11.4830 F   0  0  0  0  0  0  0  0  0  0  0  0
   15.3030    7.9750   11.2760 C   0  0  0  0  0  0  0  0  0  0  0  0
   15.3570    8.4430    9.9820 C   0  0  0  0  0  0  0  0  0  0  0  0
   15.1800    9.7980    9.7570 C   0  0  0  0  0  0  0  0  0  0  0  0
   15.0870    8.7760   12.3740 C   0  0  0  0  0  0  0  0  0  0  0  0
   14.9230   10.1330   12.1300 C   0  0  0  0  0  0  0  0  0  0  0  0
   14.9630   10.6580   10.8330 C   0  0  0  0  0  0  0  0  0  0  0  0
   14.8160   12.0410   10.7480 N   0  0  0  0  0  0  0  0  0  0  0  0
   14.6980   11.4180   13.2790 S   0  0  0  0  0  0  0  0  0  0  0  0
   14.6810   12.5620   11.9410 C   0  0  0  0  0  0  0  0  0  0  0  0
   14.5380   13.8660   12.1760 N   0  0  0  0  0  0  0  0  0  0  0  0
 11 10  1  0
 10  8  2  0
  8  7  1  0
  7  4  2  0
  4  3  1  0
  3  2  2  0
  2  1  1  0
  5  2  1  0
  6  5  2  0
  7  6  1  0
  9  6  1  0
 10  9  1  0
M  END
>  <id>  (350) 
6138

>  <inchikey>  (350) 
CJLUXPZQUXVJNF-UHFFFAOYSA-N

>  <alias>  (350) 
c1410d

>  <smiles>  (350) 
Nc1nc2ccc(F)cc2s1

>  <path>  (350) 
/opt/xchem-fragalysis-2/maxwin/CHIKV_Mac_20240920/aligned_files/c1410d/c1410d_hippo.pdb

>  <compound>  (350) 
CJLUXPZQUXVJNF-UHFFFAOYSA-N

>  <target>  (350) 
CHIKV_Mac

>  <tags>  (350) 
['[Other] Adenine site', 'hits', '[Other] fragment screen']

>  <reference>  (350) 
None

>  <exports>  (350) 
['/opt/xchem-fragalysis-2/maxwin/CHIKV_HIPPO/web_resources/hit_poses.sdf', '/opt/xchem-fragalysis-2/maxwin/CHIKV_HIPPO/web/web_resources/hit_poses.sdf', '/opt/xchem-fragalysis-2/maxwin/CHIKV_HIPPO/web2/web_resources/hit_poses.sdf']

>  <observation_longname>  (350) 
nan

>  <ConformerSites alias>  (350) 
nan

>  <CanonSites alias>  (350) 
nan

>  <CrystalformSites alias>  (350) 
nan

>  <Quatassemblies alias>  (350) 
nan

>  <Crystalforms alias>  (350) 
nan

$$$$
c1417a
     RDKit          3D

 12 12  0  0  0  0  0  0  0  0999 V2000
   14.7210    8.1660   12.7150 O   0  0  0  0  0  0  0  0  0  0  0  0
   14.8130    9.2720   13.1870 C   0  0  0  0  0  0  0  0  0  0  0  0
   15.0540    9.5010   14.4790 O   0  0  0  0  0  0  0  0  0  0  0  0
   15.1010    8.3310   15.3600 C   0  0  0  0  0  0  0  0  0  0  0  0
   16.3790    7.5770   15.1030 C   0  0  0  0  0  0  0  0  0  0  0  0
   14.6600   10.5320   12.4140 C   0  0  0  0  0  0  0  0  0  0  0  0
   14.6270   10.6170   11.0240 C   0  0  0  0  0  0  0  0  0  0  0  0
   14.8160    9.5780    9.9670 C   0  0  0  0  0  0  0  0  0  0  0  0
   14.3940   11.9050   10.7210 N   0  0  0  0  0  0  0  0  0  0  0  0
   14.2870   12.6850   11.8310 N   0  0  0  0  0  0  0  0  0  0  0  0
   14.4500   11.8680   12.8730 C   0  0  0  0  0  0  0  0  0  0  0  0
   14.4060   12.3950   14.2680 C   0  0  0  0  0  0  0  0  0  0  0  0
  5  4  1  0
  4  3  1  0
  3  2  1  0
  2  1  2  0
  6  2  1  0
  6 11  1  0
 12 11  1  0
 11 10  2  0
 10  9  1  0
  9  7  1  0
  7  6  2  0
  8  7  1  0
M  END
>  <id>  (351) 
6139

>  <inchikey>  (351) 
BCKARVLFIJPHQU-UHFFFAOYSA-N

>  <alias>  (351) 
c1417a

>  <smiles>  (351) 
CCOC(=O)c1c(C)n[nH]c1C

>  <path>  (351) 
/opt/xchem-fragalysis-2/maxwin/CHIKV_Mac_20240920/aligned_files/c1417a/c1417a_hippo.pdb

>  <compound>  (351) 
BCKARVLFIJPHQU-UHFFFAOYSA-N

>  <target>  (351) 
CHIKV_Mac

>  <tags>  (351) 
['[Other] Adenine site', 'hits', '[Other] fragment screen']

>  <reference>  (351) 
None

>  <exports>  (351) 
['/opt/xchem-fragalysis-2/maxwin/CHIKV_HIPPO/web_resources/hit_poses.sdf', '/opt/xchem-fragalysis-2/maxwin/CHIKV_HIPPO/web/web_resources/hit_poses.sdf', '/opt/xchem-fragalysis-2/maxwin/CHIKV_HIPPO/web2/web_resources/hit_poses.sdf']

>  <observation_longname>  (351) 
nan

>  <ConformerSites alias>  (351) 
nan

>  <CanonSites alias>  (351) 
nan

>  <CrystalformSites alias>  (351) 
nan

>  <Quatassemblies alias>  (351) 
nan

>  <Crystalforms alias>  (351) 
nan

$$$$
c1417b
     RDKit          3D

 12 12  0  0  0  0  0  0  0  0999 V2000
   15.1020    8.0990   12.9440 O   0  0  0  0  0  0  0  0  0  0  0  0
   15.2040    9.2510   13.2740 C   0  0  0  0  0  0  0  0  0  0  0  0
   15.5650    9.6370   14.5040 O   0  0  0  0  0  0  0  0  0  0  0  0
   14.8870    8.9850   15.6240 C   0  0  0  0  0  0  0  0  0  0  0  0
   15.3960    9.5430   16.8980 C   0  0  0  0  0  0  0  0  0  0  0  0
   14.9540   10.4020   12.3710 C   0  0  0  0  0  0  0  0  0  0  0  0
   14.9640   10.3360   10.9790 C   0  0  0  0  0  0  0  0  0  0  0  0
   15.3110    9.2210   10.0450 C   0  0  0  0  0  0  0  0  0  0  0  0
   14.6140   11.5520   10.5330 N   0  0  0  0  0  0  0  0  0  0  0  0
   14.3980   12.4310   11.5480 N   0  0  0  0  0  0  0  0  0  0  0  0
   14.5990   11.7500   12.6760 C   0  0  0  0  0  0  0  0  0  0  0  0
   14.4370   12.4110   14.0040 C   0  0  0  0  0  0  0  0  0  0  0  0
  5  4  1  0
  4  3  1  0
  3  2  1  0
  2  1  2  0
  6  2  1  0
  6 11  1  0
 12 11  1  0
 11 10  2  0
 10  9  1  0
  9  7  1  0
  7  6  2  0
  8  7  1  0
M  END
>  <id>  (352) 
6140

>  <inchikey>  (352) 
BCKARVLFIJPHQU-UHFFFAOYSA-N

>  <alias>  (352) 
c1417b

>  <smiles>  (352) 
CCOC(=O)c1c(C)n[nH]c1C

>  <path>  (352) 
/opt/xchem-fragalysis-2/maxwin/CHIKV_Mac_20240920/aligned_files/c1417b/c1417b_hippo.pdb

>  <compound>  (352) 
BCKARVLFIJPHQU-UHFFFAOYSA-N

>  <target>  (352) 
CHIKV_Mac

>  <tags>  (352) 
['[Other] Adenine site', 'hits', '[Other] fragment screen']

>  <reference>  (352) 
None

>  <exports>  (352) 
['/opt/xchem-fragalysis-2/maxwin/CHIKV_HIPPO/web_resources/hit_poses.sdf', '/opt/xchem-fragalysis-2/maxwin/CHIKV_HIPPO/web/web_resources/hit_poses.sdf', '/opt/xchem-fragalysis-2/maxwin/CHIKV_HIPPO/web2/web_resources/hit_poses.sdf']

>  <observation_longname>  (352) 
nan

>  <ConformerSites alias>  (352) 
nan

>  <CanonSites alias>  (352) 
nan

>  <CrystalformSites alias>  (352) 
nan

>  <Quatassemblies alias>  (352) 
nan

>  <Crystalforms alias>  (352) 
nan

$$$$
c1417c
     RDKit          3D

 12 12  0  0  0  0  0  0  0  0999 V2000
   15.0080    7.9540   12.4110 O   0  0  0  0  0  0  0  0  0  0  0  0
   14.9780    9.1160   12.7310 C   0  0  0  0  0  0  0  0  0  0  0  0
   14.9800    9.5300   14.0020 O   0  0  0  0  0  0  0  0  0  0  0  0
   15.4780    8.5800   15.0010 C   0  0  0  0  0  0  0  0  0  0  0  0
   15.0030    8.9910   16.3390 C   0  0  0  0  0  0  0  0  0  0  0  0
   14.9560   10.2450   11.7630 C   0  0  0  0  0  0  0  0  0  0  0  0
   15.2600   10.1090   10.4100 C   0  0  0  0  0  0  0  0  0  0  0  0
   15.6480    8.9140    9.6000 C   0  0  0  0  0  0  0  0  0  0  0  0
   15.1290   11.3230    9.8570 N   0  0  0  0  0  0  0  0  0  0  0  0
   14.7440   12.2680   10.7670 N   0  0  0  0  0  0  0  0  0  0  0  0
   14.6370   11.6300   11.9350 C   0  0  0  0  0  0  0  0  0  0  0  0
   14.2370   12.3620   13.1720 C   0  0  0  0  0  0  0  0  0  0  0  0
  5  4  1  0
  4  3  1  0
  3  2  1  0
  2  1  2  0
  6  2  1  0
  6 11  1  0
 12 11  1  0
 11 10  2  0
 10  9  1  0
  9  7  1  0
  7  6  2  0
  8  7  1  0
M  END
>  <id>  (353) 
6141

>  <inchikey>  (353) 
BCKARVLFIJPHQU-UHFFFAOYSA-N

>  <alias>  (353) 
c1417c

>  <smiles>  (353) 
CCOC(=O)c1c(C)n[nH]c1C

>  <path>  (353) 
/opt/xchem-fragalysis-2/maxwin/CHIKV_Mac_20240920/aligned_files/c1417c/c1417c_hippo.pdb

>  <compound>  (353) 
BCKARVLFIJPHQU-UHFFFAOYSA-N

>  <target>  (353) 
CHIKV_Mac

>  <tags>  (353) 
['[Other] Adenine site', 'hits', '[Other] fragment screen']

>  <reference>  (353) 
None

>  <exports>  (353) 
['/opt/xchem-fragalysis-2/maxwin/CHIKV_HIPPO/web_resources/hit_poses.sdf', '/opt/xchem-fragalysis-2/maxwin/CHIKV_HIPPO/web/web_resources/hit_poses.sdf', '/opt/xchem-fragalysis-2/maxwin/CHIKV_HIPPO/web2/web_resources/hit_poses.sdf']

>  <observation_longname>  (353) 
nan

>  <ConformerSites alias>  (353) 
nan

>  <CanonSites alias>  (353) 
nan

>  <CrystalformSites alias>  (353) 
nan

>  <Quatassemblies alias>  (353) 
nan

>  <Crystalforms alias>  (353) 
nan

$$$$
c1417d
     RDKit          3D

 12 12  0  0  0  0  0  0  0  0999 V2000
   15.1980    8.3190   12.6800 O   0  0  0  0  0  0  0  0  0  0  0  0
   15.0460    9.4510   13.0740 C   0  0  0  0  0  0  0  0  0  0  0  0
   14.9740    9.7770   14.3710 O   0  0  0  0  0  0  0  0  0  0  0  0
   14.9530    8.6610   15.3180 C   0  0  0  0  0  0  0  0  0  0  0  0
   14.9500    9.1780   16.7140 C   0  0  0  0  0  0  0  0  0  0  0  0
   14.9060   10.6340   12.1760 C   0  0  0  0  0  0  0  0  0  0  0  0
   14.7010   11.9520   12.5700 C   0  0  0  0  0  0  0  0  0  0  0  0
   14.6340   12.5790   13.9260 C   0  0  0  0  0  0  0  0  0  0  0  0
   14.5820   12.6780   11.4460 N   0  0  0  0  0  0  0  0  0  0  0  0
   14.7060   11.9200   10.3250 N   0  0  0  0  0  0  0  0  0  0  0  0
   14.9170   10.6710   10.7470 C   0  0  0  0  0  0  0  0  0  0  0  0
   15.1520    9.5650    9.7700 C   0  0  0  0  0  0  0  0  0  0  0  0
  5  4  1  0
  4  3  1  0
  3  2  1  0
  2  1  2  0
  6  2  1  0
  6 11  1  0
 12 11  1  0
 11 10  2  0
 10  9  1  0
  9  7  1  0
  7  6  2  0
  8  7  1  0
M  END
>  <id>  (354) 
6142

>  <inchikey>  (354) 
BCKARVLFIJPHQU-UHFFFAOYSA-N

>  <alias>  (354) 
c1417d

>  <smiles>  (354) 
CCOC(=O)c1c(C)n[nH]c1C

>  <path>  (354) 
/opt/xchem-fragalysis-2/maxwin/CHIKV_Mac_20240920/aligned_files/c1417d/c1417d_hippo.pdb

>  <compound>  (354) 
BCKARVLFIJPHQU-UHFFFAOYSA-N

>  <target>  (354) 
CHIKV_Mac

>  <tags>  (354) 
['[Other] Adenine site', 'hits', '[Other] fragment screen']

>  <reference>  (354) 
None

>  <exports>  (354) 
['/opt/xchem-fragalysis-2/maxwin/CHIKV_HIPPO/web_resources/hit_poses.sdf', '/opt/xchem-fragalysis-2/maxwin/CHIKV_HIPPO/web/web_resources/hit_poses.sdf', '/opt/xchem-fragalysis-2/maxwin/CHIKV_HIPPO/web2/web_resources/hit_poses.sdf']

>  <observation_longname>  (354) 
nan

>  <ConformerSites alias>  (354) 
nan

>  <CanonSites alias>  (354) 
nan

>  <CrystalformSites alias>  (354) 
nan

>  <Quatassemblies alias>  (354) 
nan

>  <Crystalforms alias>  (354) 
nan

$$$$
c1421a
     RDKit          3D

 15 16  0  0  0  0  0  0  0  0999 V2000
   14.5180    0.3110   16.3100 O   0  0  0  0  0  0  0  0  0  0  0  0
   15.6690    0.3590   16.7120 C   0  0  0  0  0  0  0  0  0  0  0  0
   16.1580   -0.7040   17.6420 C   0  0  0  0  0  0  0  0  0  0  0  0
   17.1150   -1.6260   17.2370 C   0  0  0  0  0  0  0  0  0  0  0  0
   17.5380   -2.6220   18.1010 C   0  0  0  0  0  0  0  0  0  0  0  0
   17.0150   -2.7060   19.3790 C   0  0  0  0  0  0  0  0  0  0  0  0
   15.6300   -0.7840   18.9270 C   0  0  0  0  0  0  0  0  0  0  0  0
   16.0690   -1.7770   19.7930 C   0  0  0  0  0  0  0  0  0  0  0  0
   15.6010   -1.8030   21.0690 O   0  0  0  0  0  0  0  0  0  0  0  0
   16.5080    1.3620   16.3670 N   0  0  0  0  0  0  0  0  0  0  0  0
   17.8880    1.5380   16.8340 C   0  0  0  0  0  0  0  0  0  0  0  0
   18.8040    1.7410   15.6570 C   0  0  0  0  0  0  0  0  0  0  0  0
   18.3860    2.8380   14.8510 O   0  0  0  0  0  0  0  0  0  0  0  0
   17.0720    2.5990   14.3530 C   0  0  0  0  0  0  0  0  0  0  0  0
   16.0800    2.4410   15.4670 C   0  0  0  0  0  0  0  0  0  0  0  0
  9  8  1  0
  8  6  2  0
  6  5  1  0
  5  4  2  0
  4  3  1  0
  7  3  2  0
  8  7  1  0
  3  2  1  0
  2  1  2  0
 10  2  1  0
 10 15  1  0
 15 14  1  0
 14 13  1  0
 13 12  1  0
 12 11  1  0
 11 10  1  0
M  END
>  <id>  (355) 
6143

>  <inchikey>  (355) 
PELYAGCBLDBUTI-UHFFFAOYSA-N

>  <alias>  (355) 
c1421a

>  <smiles>  (355) 
O=C(c1cccc(O)c1)N1CCOCC1

>  <path>  (355) 
/opt/xchem-fragalysis-2/maxwin/CHIKV_Mac_20240920/aligned_files/c1421a/c1421a_hippo.pdb

>  <compound>  (355) 
PELYAGCBLDBUTI-UHFFFAOYSA-N

>  <target>  (355) 
CHIKV_Mac

>  <tags>  (355) 
['hits', '[Other] Trp148 site', '[Other] fragment screen']

>  <reference>  (355) 
None

>  <exports>  (355) 
['/opt/xchem-fragalysis-2/maxwin/CHIKV_HIPPO/web_resources/hit_poses.sdf', '/opt/xchem-fragalysis-2/maxwin/CHIKV_HIPPO/web/web_resources/hit_poses.sdf', '/opt/xchem-fragalysis-2/maxwin/CHIKV_HIPPO/web2/web_resources/hit_poses.sdf']

>  <observation_longname>  (355) 
nan

>  <ConformerSites alias>  (355) 
nan

>  <CanonSites alias>  (355) 
nan

>  <CrystalformSites alias>  (355) 
nan

>  <Quatassemblies alias>  (355) 
nan

>  <Crystalforms alias>  (355) 
nan

$$$$
c1421b
     RDKit          3D

 15 16  0  0  0  0  0  0  0  0999 V2000
   14.8790    0.6070   15.7300 O   0  0  0  0  0  0  0  0  0  0  0  0
   15.9770    0.6220   16.2680 C   0  0  0  0  0  0  0  0  0  0  0  0
   16.3380   -0.4750   17.2130 C   0  0  0  0  0  0  0  0  0  0  0  0
   17.4470   -1.3040   17.0520 C   0  0  0  0  0  0  0  0  0  0  0  0
   17.7070   -2.3060   17.9680 C   0  0  0  0  0  0  0  0  0  0  0  0
   16.8660   -2.4960   19.0540 C   0  0  0  0  0  0  0  0  0  0  0  0
   15.4960   -0.6610   18.3040 C   0  0  0  0  0  0  0  0  0  0  0  0
   15.7620   -1.6680   19.2170 C   0  0  0  0  0  0  0  0  0  0  0  0
   14.9210   -1.8000   20.2760 O   0  0  0  0  0  0  0  0  0  0  0  0
   16.8530    1.6330   16.0830 N   0  0  0  0  0  0  0  0  0  0  0  0
   18.1700    1.7370   16.7200 C   0  0  0  0  0  0  0  0  0  0  0  0
   19.2060    2.0200   15.6790 C   0  0  0  0  0  0  0  0  0  0  0  0
   18.9050    3.2130   14.9720 O   0  0  0  0  0  0  0  0  0  0  0  0
   17.6540    3.0840   14.3060 C   0  0  0  0  0  0  0  0  0  0  0  0
   16.5350    2.8120   15.2690 C   0  0  0  0  0  0  0  0  0  0  0  0
  9  8  1  0
  8  6  2  0
  6  5  1  0
  5  4  2  0
  4  3  1  0
  7  3  2  0
  8  7  1  0
  3  2  1  0
  2  1  2  0
 10  2  1  0
 10 15  1  0
 15 14  1  0
 14 13  1  0
 13 12  1  0
 12 11  1  0
 11 10  1  0
M  END
>  <id>  (356) 
6144

>  <inchikey>  (356) 
PELYAGCBLDBUTI-UHFFFAOYSA-N

>  <alias>  (356) 
c1421b

>  <smiles>  (356) 
O=C(c1cccc(O)c1)N1CCOCC1

>  <path>  (356) 
/opt/xchem-fragalysis-2/maxwin/CHIKV_Mac_20240920/aligned_files/c1421b/c1421b_hippo.pdb

>  <compound>  (356) 
PELYAGCBLDBUTI-UHFFFAOYSA-N

>  <target>  (356) 
CHIKV_Mac

>  <tags>  (356) 
['hits', '[Other] Trp148 site', '[Other] fragment screen']

>  <reference>  (356) 
None

>  <exports>  (356) 
['/opt/xchem-fragalysis-2/maxwin/CHIKV_HIPPO/web_resources/hit_poses.sdf', '/opt/xchem-fragalysis-2/maxwin/CHIKV_HIPPO/web/web_resources/hit_poses.sdf', '/opt/xchem-fragalysis-2/maxwin/CHIKV_HIPPO/web2/web_resources/hit_poses.sdf']

>  <observation_longname>  (356) 
nan

>  <ConformerSites alias>  (356) 
nan

>  <CanonSites alias>  (356) 
nan

>  <CrystalformSites alias>  (356) 
nan

>  <Quatassemblies alias>  (356) 
nan

>  <Crystalforms alias>  (356) 
nan

$$$$
c1431a
     RDKit          3D

 11 12  0  0  0  0  0  0  0  0999 V2000
   14.4680    8.9200    9.2390 N   0  0  0  0  0  0  0  0  0  0  0  0
   14.6010    9.4180   10.4850 C   0  0  0  0  0  0  0  0  0  0  0  0
   14.5210   10.7730   10.7320 C   0  0  0  0  0  0  0  0  0  0  0  0
   14.5610   11.2580   12.0520 C   0  0  0  0  0  0  0  0  0  0  0  0
   14.6970   10.3200   13.1040 C   0  0  0  0  0  0  0  0  0  0  0  0
   14.8000    8.9640   12.8760 N   0  0  0  0  0  0  0  0  0  0  0  0
   14.7550    8.5470   11.6300 C   0  0  0  0  0  0  0  0  0  0  0  0
   14.4380   12.6300   12.3770 C   0  0  0  0  0  0  0  0  0  0  0  0
   14.4520   13.0390   13.6780 C   0  0  0  0  0  0  0  0  0  0  0  0
   14.5910   12.1200   14.7060 C   0  0  0  0  0  0  0  0  0  0  0  0
   14.7080   10.7860   14.4390 C   0  0  0  0  0  0  0  0  0  0  0  0
  2  1  1  0
  2  7  2  0
  7  6  1  0
  6  5  2  0
  5 11  1  0
 11 10  2  0
 10  9  1  0
  9  8  2  0
  8  4  1  0
  5  4  1  0
  4  3  2  0
  3  2  1  0
M  END
>  <id>  (357) 
6145

>  <inchikey>  (357) 
SVNCRRZKBNSMIV-UHFFFAOYSA-N

>  <alias>  (357) 
c1431a

>  <smiles>  (357) 
Nc1cnc2ccccc2c1

>  <path>  (357) 
/opt/xchem-fragalysis-2/maxwin/CHIKV_Mac_20240920/aligned_files/c1431a/c1431a_hippo.pdb

>  <compound>  (357) 
SVNCRRZKBNSMIV-UHFFFAOYSA-N

>  <target>  (357) 
CHIKV_Mac

>  <tags>  (357) 
['[Other] Adenine site', 'hits', '[Other] fragment screen']

>  <reference>  (357) 
None

>  <exports>  (357) 
['/opt/xchem-fragalysis-2/maxwin/CHIKV_HIPPO/web_resources/hit_poses.sdf', '/opt/xchem-fragalysis-2/maxwin/CHIKV_HIPPO/web/web_resources/hit_poses.sdf', '/opt/xchem-fragalysis-2/maxwin/CHIKV_HIPPO/web2/web_resources/hit_poses.sdf']

>  <observation_longname>  (357) 
nan

>  <ConformerSites alias>  (357) 
nan

>  <CanonSites alias>  (357) 
nan

>  <CrystalformSites alias>  (357) 
nan

>  <Quatassemblies alias>  (357) 
nan

>  <Crystalforms alias>  (357) 
nan

$$$$
c1431b
     RDKit          3D

 11 12  0  0  0  0  0  0  0  0999 V2000
    9.8880    5.1150   12.2120 N   0  0  0  0  0  0  0  0  0  0  0  0
   10.8580    5.7040   12.9910 C   0  0  0  0  0  0  0  0  0  0  0  0
   12.1790    5.3100   12.9160 C   0  0  0  0  0  0  0  0  0  0  0  0
   13.1440    5.8870   13.7650 C   0  0  0  0  0  0  0  0  0  0  0  0
   12.7210    6.8920   14.6720 C   0  0  0  0  0  0  0  0  0  0  0  0
   11.4130    7.3230   14.7400 N   0  0  0  0  0  0  0  0  0  0  0  0
   10.5340    6.7470   13.9480 C   0  0  0  0  0  0  0  0  0  0  0  0
   14.4980    5.4730   13.7910 C   0  0  0  0  0  0  0  0  0  0  0  0
   15.3740    6.0220   14.6840 C   0  0  0  0  0  0  0  0  0  0  0  0
   14.9570    7.0000   15.5750 C   0  0  0  0  0  0  0  0  0  0  0  0
   13.6630    7.4380   15.5750 C   0  0  0  0  0  0  0  0  0  0  0  0
  2  1  1  0
  2  7  2  0
  7  6  1  0
  6  5  2  0
  5 11  1  0
 11 10  2  0
 10  9  1  0
  9  8  2  0
  8  4  1  0
  5  4  1  0
  4  3  2  0
  3  2  1  0
M  END
>  <id>  (358) 
6146

>  <inchikey>  (358) 
SVNCRRZKBNSMIV-UHFFFAOYSA-N

>  <alias>  (358) 
c1431b

>  <smiles>  (358) 
Nc1cnc2ccccc2c1

>  <path>  (358) 
/opt/xchem-fragalysis-2/maxwin/CHIKV_Mac_20240920/aligned_files/c1431b/c1431b_hippo.pdb

>  <compound>  (358) 
SVNCRRZKBNSMIV-UHFFFAOYSA-N

>  <target>  (358) 
CHIKV_Mac

>  <tags>  (358) 
['hits', '[Other] Phosphate site', '[Other] fragment screen']

>  <reference>  (358) 
None

>  <exports>  (358) 
['/opt/xchem-fragalysis-2/maxwin/CHIKV_HIPPO/web_resources/hit_poses.sdf', '/opt/xchem-fragalysis-2/maxwin/CHIKV_HIPPO/web/web_resources/hit_poses.sdf', '/opt/xchem-fragalysis-2/maxwin/CHIKV_HIPPO/web2/web_resources/hit_poses.sdf']

>  <observation_longname>  (358) 
nan

>  <ConformerSites alias>  (358) 
nan

>  <CanonSites alias>  (358) 
nan

>  <CrystalformSites alias>  (358) 
nan

>  <Quatassemblies alias>  (358) 
nan

>  <Crystalforms alias>  (358) 
nan

$$$$
c1431c
     RDKit          3D

 11 12  0  0  0  0  0  0  0  0999 V2000
   14.4020   13.2750   14.1930 N   0  0  0  0  0  0  0  0  0  0  0  0
   14.5270   12.4290   13.1320 C   0  0  0  0  0  0  0  0  0  0  0  0
   14.7340   11.0760   13.3130 C   0  0  0  0  0  0  0  0  0  0  0  0
   14.8750   10.2210   12.2010 C   0  0  0  0  0  0  0  0  0  0  0  0
   14.8120   10.7950   10.9010 C   0  0  0  0  0  0  0  0  0  0  0  0
   14.5960   12.1410   10.6980 N   0  0  0  0  0  0  0  0  0  0  0  0
   14.4580   12.9080   11.7600 C   0  0  0  0  0  0  0  0  0  0  0  0
   15.0580    8.8210   12.3200 C   0  0  0  0  0  0  0  0  0  0  0  0
   15.1670    8.0360   11.2060 C   0  0  0  0  0  0  0  0  0  0  0  0
   15.1150    8.5980    9.9360 C   0  0  0  0  0  0  0  0  0  0  0  0
   14.9520    9.9500    9.7720 C   0  0  0  0  0  0  0  0  0  0  0  0
  2  1  1  0
  2  7  2  0
  7  6  1  0
  6  5  2  0
  5 11  1  0
 11 10  2  0
 10  9  1  0
  9  8  2  0
  8  4  1  0
  5  4  1  0
  4  3  2  0
  3  2  1  0
M  END
>  <id>  (359) 
6147

>  <inchikey>  (359) 
SVNCRRZKBNSMIV-UHFFFAOYSA-N

>  <alias>  (359) 
c1431c

>  <smiles>  (359) 
Nc1cnc2ccccc2c1

>  <path>  (359) 
/opt/xchem-fragalysis-2/maxwin/CHIKV_Mac_20240920/aligned_files/c1431c/c1431c_hippo.pdb

>  <compound>  (359) 
SVNCRRZKBNSMIV-UHFFFAOYSA-N

>  <target>  (359) 
CHIKV_Mac

>  <tags>  (359) 
['[Other] Adenine site', 'hits', '[Other] fragment screen']

>  <reference>  (359) 
None

>  <exports>  (359) 
['/opt/xchem-fragalysis-2/maxwin/CHIKV_HIPPO/web_resources/hit_poses.sdf', '/opt/xchem-fragalysis-2/maxwin/CHIKV_HIPPO/web/web_resources/hit_poses.sdf', '/opt/xchem-fragalysis-2/maxwin/CHIKV_HIPPO/web2/web_resources/hit_poses.sdf']

>  <observation_longname>  (359) 
nan

>  <ConformerSites alias>  (359) 
nan

>  <CanonSites alias>  (359) 
nan

>  <CrystalformSites alias>  (359) 
nan

>  <Quatassemblies alias>  (359) 
nan

>  <Crystalforms alias>  (359) 
nan

$$$$
c1431d
     RDKit          3D

 11 12  0  0  0  0  0  0  0  0999 V2000
   17.4800   14.4220   13.5460 N   0  0  0  0  0  0  0  0  0  0  0  0
   18.5970   13.9380   12.9170 C   0  0  0  0  0  0  0  0  0  0  0  0
   18.5390   12.8490   12.0700 C   0  0  0  0  0  0  0  0  0  0  0  0
   19.6980   12.4010   11.4060 C   0  0  0  0  0  0  0  0  0  0  0  0
   20.9110   13.0990   11.6350 C   0  0  0  0  0  0  0  0  0  0  0  0
   20.9910   14.1790   12.4860 N   0  0  0  0  0  0  0  0  0  0  0  0
   19.8880   14.5690   13.0890 C   0  0  0  0  0  0  0  0  0  0  0  0
   19.7060   11.3050   10.5140 C   0  0  0  0  0  0  0  0  0  0  0  0
   20.8570   10.9330    9.8830 C   0  0  0  0  0  0  0  0  0  0  0  0
   22.0380   11.6240   10.0990 C   0  0  0  0  0  0  0  0  0  0  0  0
   22.0800   12.6820   10.9590 C   0  0  0  0  0  0  0  0  0  0  0  0
  2  1  1  0
  2  7  2  0
  7  6  1  0
  6  5  2  0
  5 11  1  0
 11 10  2  0
 10  9  1  0
  9  8  2  0
  8  4  1  0
  5  4  1  0
  4  3  2  0
  3  2  1  0
M  END
>  <id>  (360) 
6148

>  <inchikey>  (360) 
SVNCRRZKBNSMIV-UHFFFAOYSA-N

>  <alias>  (360) 
c1431d

>  <smiles>  (360) 
Nc1cnc2ccccc2c1

>  <path>  (360) 
/opt/xchem-fragalysis-2/maxwin/CHIKV_Mac_20240920/aligned_files/c1431d/c1431d_hippo.pdb

>  <compound>  (360) 
SVNCRRZKBNSMIV-UHFFFAOYSA-N

>  <target>  (360) 
CHIKV_Mac

>  <tags>  (360) 
['hits', '[Other] Arg144 pocket', '[Other] fragment screen']

>  <reference>  (360) 
None

>  <exports>  (360) 
['/opt/xchem-fragalysis-2/maxwin/CHIKV_HIPPO/web_resources/hit_poses.sdf', '/opt/xchem-fragalysis-2/maxwin/CHIKV_HIPPO/web/web_resources/hit_poses.sdf', '/opt/xchem-fragalysis-2/maxwin/CHIKV_HIPPO/web2/web_resources/hit_poses.sdf']

>  <observation_longname>  (360) 
nan

>  <ConformerSites alias>  (360) 
nan

>  <CanonSites alias>  (360) 
nan

>  <CrystalformSites alias>  (360) 
nan

>  <Quatassemblies alias>  (360) 
nan

>  <Crystalforms alias>  (360) 
nan

$$$$
c1435a
     RDKit          3D

 12 13  0  0  0  0  0  0  0  0999 V2000
   23.1560   14.5840    9.2660 O   0  0  0  0  0  0  0  0  0  0  0  0
   22.9960   13.4750    9.7950 C   0  0  0  0  0  0  0  0  0  0  0  0
   24.0040   12.6540   10.0530 N   0  0  0  0  0  0  0  0  0  0  0  0
   21.6200   13.0270   10.1760 C   0  0  0  0  0  0  0  0  0  0  0  0
   20.7630   13.8560   10.9220 C   0  0  0  0  0  0  0  0  0  0  0  0
   20.8500   15.1920   11.4380 C   0  0  0  0  0  0  0  0  0  0  0  0
   19.6760   15.4430   12.0700 C   0  0  0  0  0  0  0  0  0  0  0  0
   18.8530   14.3500   11.9850 N   0  0  0  0  0  0  0  0  0  0  0  0
   19.4930   13.3580   11.2800 C   0  0  0  0  0  0  0  0  0  0  0  0
   19.0680   12.0870   10.9110 C   0  0  0  0  0  0  0  0  0  0  0  0
   19.9260   11.2950   10.1630 C   0  0  0  0  0  0  0  0  0  0  0  0
   21.1880   11.7530    9.8030 C   0  0  0  0  0  0  0  0  0  0  0  0
  3  2  1  0
  2  1  2  0
  4  2  1  0
  4 12  2  0
 12 11  1  0
 11 10  2  0
 10  9  1  0
  9  8  1  0
  8  7  1  0
  7  6  2  0
  6  5  1  0
  5  4  1  0
  9  5  2  0
M  END
>  <id>  (361) 
6149

>  <inchikey>  (361) 
ACRGIRLCXXEJCS-UHFFFAOYSA-N

>  <alias>  (361) 
c1435a

>  <smiles>  (361) 
NC(=O)c1cccc2[nH]ccc12

>  <path>  (361) 
/opt/xchem-fragalysis-2/maxwin/CHIKV_Mac_20240920/aligned_files/c1435a/c1435a.pdb

>  <compound>  (361) 
ACRGIRLCXXEJCS-UHFFFAOYSA-N

>  <target>  (361) 
CHIKV_Mac

>  <tags>  (361) 
['hits', '[Other] Arg144 pocket', '[Other] fragment screen']

>  <reference>  (361) 
None

>  <exports>  (361) 
['/opt/xchem-fragalysis-2/maxwin/CHIKV_HIPPO/web_resources/hit_poses.sdf', '/opt/xchem-fragalysis-2/maxwin/CHIKV_HIPPO/web/web_resources/hit_poses.sdf', '/opt/xchem-fragalysis-2/maxwin/CHIKV_HIPPO/web2/web_resources/hit_poses.sdf']

>  <observation_longname>  (361) 
nan

>  <ConformerSites alias>  (361) 
nan

>  <CanonSites alias>  (361) 
nan

>  <CrystalformSites alias>  (361) 
nan

>  <Quatassemblies alias>  (361) 
nan

>  <Crystalforms alias>  (361) 
nan

$$$$
c1440a
     RDKit          3D

 11 12  0  0  0  0  0  0  0  0999 V2000
   14.3420   12.9080   11.6760 N   0  0  0  0  0  0  0  0  0  0  0  0
   14.6400   11.6400   11.3490 C   0  0  0  0  0  0  0  0  0  0  0  0
   14.8080   10.6160   12.3570 C   0  0  0  0  0  0  0  0  0  0  0  0
   15.0610    9.2920   11.8980 C   0  0  0  0  0  0  0  0  0  0  0  0
   15.1650    9.0600   10.5070 C   0  0  0  0  0  0  0  0  0  0  0  0
   15.0230   10.0980    9.6410 C   0  0  0  0  0  0  0  0  0  0  0  0
   14.7570   11.3600   10.0140 N   0  0  0  0  0  0  0  0  0  0  0  0
   14.7640   10.8420   13.7580 C   0  0  0  0  0  0  0  0  0  0  0  0
   14.9530    9.8190   14.6360 C   0  0  0  0  0  0  0  0  0  0  0  0
   15.1760    8.5290   14.1830 C   0  0  0  0  0  0  0  0  0  0  0  0
   15.2260    8.2580   12.8480 C   0  0  0  0  0  0  0  0  0  0  0  0
  2  1  1  0
  2  7  2  0
  7  6  1  0
  6  5  2  0
  5  4  1  0
  4 11  2  0
 11 10  1  0
 10  9  2  0
  9  8  1  0
  8  3  2  0
  3  2  1  0
  4  3  1  0
M  END
>  <id>  (362) 
6150

>  <inchikey>  (362) 
OSILBMSORKFRTB-UHFFFAOYSA-N

>  <alias>  (362) 
c1440a

>  <smiles>  (362) 
Nc1nccc2ccccc12

>  <path>  (362) 
/opt/xchem-fragalysis-2/maxwin/CHIKV_Mac_20240920/aligned_files/c1440a/c1440a_hippo.pdb

>  <compound>  (362) 
OSILBMSORKFRTB-UHFFFAOYSA-N

>  <target>  (362) 
CHIKV_Mac

>  <tags>  (362) 
['[Other] Adenine site', 'hits', '[Other] fragment screen']

>  <reference>  (362) 
None

>  <exports>  (362) 
['/opt/xchem-fragalysis-2/maxwin/CHIKV_HIPPO/web_resources/hit_poses.sdf', '/opt/xchem-fragalysis-2/maxwin/CHIKV_HIPPO/web/web_resources/hit_poses.sdf', '/opt/xchem-fragalysis-2/maxwin/CHIKV_HIPPO/web2/web_resources/hit_poses.sdf']

>  <observation_longname>  (362) 
nan

>  <ConformerSites alias>  (362) 
nan

>  <CanonSites alias>  (362) 
nan

>  <CrystalformSites alias>  (362) 
nan

>  <Quatassemblies alias>  (362) 
nan

>  <Crystalforms alias>  (362) 
nan

$$$$
c1440b
     RDKit          3D

 11 12  0  0  0  0  0  0  0  0999 V2000
   22.1760   11.8270   10.2890 N   0  0  0  0  0  0  0  0  0  0  0  0
   20.9260   12.0570   10.7040 C   0  0  0  0  0  0  0  0  0  0  0  0
   20.6150   13.1310   11.6230 C   0  0  0  0  0  0  0  0  0  0  0  0
   19.2440   13.3030   11.9770 C   0  0  0  0  0  0  0  0  0  0  0  0
   18.2790   12.4210   11.4310 C   0  0  0  0  0  0  0  0  0  0  0  0
   18.6740   11.4360   10.5770 C   0  0  0  0  0  0  0  0  0  0  0  0
   19.9450   11.2320   10.1980 N   0  0  0  0  0  0  0  0  0  0  0  0
   21.5620   14.0460   12.1590 C   0  0  0  0  0  0  0  0  0  0  0  0
   21.1690   15.0650   12.9770 C   0  0  0  0  0  0  0  0  0  0  0  0
   19.8320   15.2280   13.3140 C   0  0  0  0  0  0  0  0  0  0  0  0
   18.8840   14.3710   12.8360 C   0  0  0  0  0  0  0  0  0  0  0  0
  2  1  1  0
  2  7  2  0
  7  6  1  0
  6  5  2  0
  5  4  1  0
  4 11  2  0
 11 10  1  0
 10  9  2  0
  9  8  1  0
  8  3  2  0
  3  2  1  0
  4  3  1  0
M  END
>  <id>  (363) 
6151

>  <inchikey>  (363) 
OSILBMSORKFRTB-UHFFFAOYSA-N

>  <alias>  (363) 
c1440b

>  <smiles>  (363) 
Nc1nccc2ccccc12

>  <path>  (363) 
/opt/xchem-fragalysis-2/maxwin/CHIKV_Mac_20240920/aligned_files/c1440b/c1440b_hippo.pdb

>  <compound>  (363) 
OSILBMSORKFRTB-UHFFFAOYSA-N

>  <target>  (363) 
CHIKV_Mac

>  <tags>  (363) 
['hits', '[Other] Arg144 pocket', '[Other] fragment screen']

>  <reference>  (363) 
None

>  <exports>  (363) 
['/opt/xchem-fragalysis-2/maxwin/CHIKV_HIPPO/web_resources/hit_poses.sdf', '/opt/xchem-fragalysis-2/maxwin/CHIKV_HIPPO/web/web_resources/hit_poses.sdf', '/opt/xchem-fragalysis-2/maxwin/CHIKV_HIPPO/web2/web_resources/hit_poses.sdf']

>  <observation_longname>  (363) 
nan

>  <ConformerSites alias>  (363) 
nan

>  <CanonSites alias>  (363) 
nan

>  <CrystalformSites alias>  (363) 
nan

>  <Quatassemblies alias>  (363) 
nan

>  <Crystalforms alias>  (363) 
nan

$$$$
c1440c
     RDKit          3D

 11 12  0  0  0  0  0  0  0  0999 V2000
   14.4240   12.5810   11.6110 N   0  0  0  0  0  0  0  0  0  0  0  0
   14.7220   11.2860   11.3600 C   0  0  0  0  0  0  0  0  0  0  0  0
   14.8880   10.3250   12.4270 C   0  0  0  0  0  0  0  0  0  0  0  0
   15.2220    8.9890   12.0550 C   0  0  0  0  0  0  0  0  0  0  0  0
   15.3950    8.6810   10.6820 C   0  0  0  0  0  0  0  0  0  0  0  0
   15.2200    9.6540    9.7420 C   0  0  0  0  0  0  0  0  0  0  0  0
   14.8830   10.9240   10.0230 N   0  0  0  0  0  0  0  0  0  0  0  0
   14.7580   10.6170   13.8150 C   0  0  0  0  0  0  0  0  0  0  0  0
   14.9440    9.6470   14.7600 C   0  0  0  0  0  0  0  0  0  0  0  0
   15.2550    8.3500   14.3900 C   0  0  0  0  0  0  0  0  0  0  0  0
   15.3890    8.0160   13.0710 C   0  0  0  0  0  0  0  0  0  0  0  0
  2  1  1  0
  2  7  2  0
  7  6  1  0
  6  5  2  0
  5  4  1  0
  4 11  2  0
 11 10  1  0
 10  9  2  0
  9  8  1  0
  8  3  2  0
  3  2  1  0
  4  3  1  0
M  END
>  <id>  (364) 
6152

>  <inchikey>  (364) 
OSILBMSORKFRTB-UHFFFAOYSA-N

>  <alias>  (364) 
c1440c

>  <smiles>  (364) 
Nc1nccc2ccccc12

>  <path>  (364) 
/opt/xchem-fragalysis-2/maxwin/CHIKV_Mac_20240920/aligned_files/c1440c/c1440c_hippo.pdb

>  <compound>  (364) 
OSILBMSORKFRTB-UHFFFAOYSA-N

>  <target>  (364) 
CHIKV_Mac

>  <tags>  (364) 
['[Other] Adenine site', 'hits', '[Other] fragment screen']

>  <reference>  (364) 
None

>  <exports>  (364) 
['/opt/xchem-fragalysis-2/maxwin/CHIKV_HIPPO/web_resources/hit_poses.sdf', '/opt/xchem-fragalysis-2/maxwin/CHIKV_HIPPO/web/web_resources/hit_poses.sdf', '/opt/xchem-fragalysis-2/maxwin/CHIKV_HIPPO/web2/web_resources/hit_poses.sdf']

>  <observation_longname>  (364) 
nan

>  <ConformerSites alias>  (364) 
nan

>  <CanonSites alias>  (364) 
nan

>  <CrystalformSites alias>  (364) 
nan

>  <Quatassemblies alias>  (364) 
nan

>  <Crystalforms alias>  (364) 
nan

$$$$
c1440d
     RDKit          3D

 11 12  0  0  0  0  0  0  0  0999 V2000
   22.1140   14.8860   12.7620 N   0  0  0  0  0  0  0  0  0  0  0  0
   22.1640   13.9530   11.7990 C   0  0  0  0  0  0  0  0  0  0  0  0
   20.9970   13.1770   11.4410 C   0  0  0  0  0  0  0  0  0  0  0  0
   21.1560   12.2030   10.4150 C   0  0  0  0  0  0  0  0  0  0  0  0
   22.4190   12.0590    9.7970 C   0  0  0  0  0  0  0  0  0  0  0  0
   23.4580   12.8430   10.1980 C   0  0  0  0  0  0  0  0  0  0  0  0
   23.3740   13.7670   11.1690 N   0  0  0  0  0  0  0  0  0  0  0  0
   19.7180   13.3150   12.0380 C   0  0  0  0  0  0  0  0  0  0  0  0
   18.6700   12.5360   11.6420 C   0  0  0  0  0  0  0  0  0  0  0  0
   18.8360   11.5870   10.6470 C   0  0  0  0  0  0  0  0  0  0  0  0
   20.0460   11.4140   10.0440 C   0  0  0  0  0  0  0  0  0  0  0  0
  2  1  1  0
  2  7  2  0
  7  6  1  0
  6  5  2  0
  5  4  1  0
  4 11  2  0
 11 10  1  0
 10  9  2  0
  9  8  1  0
  8  3  2  0
  3  2  1  0
  4  3  1  0
M  END
>  <id>  (365) 
6153

>  <inchikey>  (365) 
OSILBMSORKFRTB-UHFFFAOYSA-N

>  <alias>  (365) 
c1440d

>  <smiles>  (365) 
Nc1nccc2ccccc12

>  <path>  (365) 
/opt/xchem-fragalysis-2/maxwin/CHIKV_Mac_20240920/aligned_files/c1440d/c1440d_hippo.pdb

>  <compound>  (365) 
OSILBMSORKFRTB-UHFFFAOYSA-N

>  <target>  (365) 
CHIKV_Mac

>  <tags>  (365) 
['hits', '[Other] Arg144 pocket', '[Other] fragment screen']

>  <reference>  (365) 
None

>  <exports>  (365) 
['/opt/xchem-fragalysis-2/maxwin/CHIKV_HIPPO/web_resources/hit_poses.sdf', '/opt/xchem-fragalysis-2/maxwin/CHIKV_HIPPO/web/web_resources/hit_poses.sdf', '/opt/xchem-fragalysis-2/maxwin/CHIKV_HIPPO/web2/web_resources/hit_poses.sdf']

>  <observation_longname>  (365) 
nan

>  <ConformerSites alias>  (365) 
nan

>  <CanonSites alias>  (365) 
nan

>  <CrystalformSites alias>  (365) 
nan

>  <Quatassemblies alias>  (365) 
nan

>  <Crystalforms alias>  (365) 
nan

$$$$
c1440f
     RDKit          3D

 11 12  0  0  0  0  0  0  0  0999 V2000
   21.6090   14.9370   12.7580 N   0  0  0  0  0  0  0  0  0  0  0  0
   21.7200   13.8940   11.9230 C   0  0  0  0  0  0  0  0  0  0  0  0
   20.5640   13.1130   11.5440 C   0  0  0  0  0  0  0  0  0  0  0  0
   20.7620   12.0920   10.5710 C   0  0  0  0  0  0  0  0  0  0  0  0
   22.0580   11.8900   10.0450 C   0  0  0  0  0  0  0  0  0  0  0  0
   23.0870   12.6630   10.4860 C   0  0  0  0  0  0  0  0  0  0  0  0
   22.9590   13.6410   11.3990 N   0  0  0  0  0  0  0  0  0  0  0  0
   19.2620   13.2820   12.0850 C   0  0  0  0  0  0  0  0  0  0  0  0
   18.2280   12.4910   11.6790 C   0  0  0  0  0  0  0  0  0  0  0  0
   18.4250   11.5030   10.7290 C   0  0  0  0  0  0  0  0  0  0  0  0
   19.6600   11.3010   10.1800 C   0  0  0  0  0  0  0  0  0  0  0  0
  2  1  1  0
  2  7  2  0
  7  6  1  0
  6  5  2  0
  5  4  1  0
  4 11  2  0
 11 10  1  0
 10  9  2  0
  9  8  1  0
  8  3  2  0
  3  2  1  0
  4  3  1  0
M  END
>  <id>  (366) 
6154

>  <inchikey>  (366) 
OSILBMSORKFRTB-UHFFFAOYSA-N

>  <alias>  (366) 
c1440f

>  <smiles>  (366) 
Nc1nccc2ccccc12

>  <path>  (366) 
/opt/xchem-fragalysis-2/maxwin/CHIKV_Mac_20240920/aligned_files/c1440f/c1440f_hippo.pdb

>  <compound>  (366) 
OSILBMSORKFRTB-UHFFFAOYSA-N

>  <target>  (366) 
CHIKV_Mac

>  <tags>  (366) 
['hits', '[Other] Arg144 pocket', '[Other] fragment screen']

>  <reference>  (366) 
None

>  <exports>  (366) 
['/opt/xchem-fragalysis-2/maxwin/CHIKV_HIPPO/web_resources/hit_poses.sdf', '/opt/xchem-fragalysis-2/maxwin/CHIKV_HIPPO/web/web_resources/hit_poses.sdf', '/opt/xchem-fragalysis-2/maxwin/CHIKV_HIPPO/web2/web_resources/hit_poses.sdf']

>  <observation_longname>  (366) 
nan

>  <ConformerSites alias>  (366) 
nan

>  <CanonSites alias>  (366) 
nan

>  <CrystalformSites alias>  (366) 
nan

>  <Quatassemblies alias>  (366) 
nan

>  <Crystalforms alias>  (366) 
nan

$$$$
c1440e
     RDKit          3D

 11 12  0  0  0  0  0  0  0  0999 V2000
   14.4210   12.8860   11.6100 N   0  0  0  0  0  0  0  0  0  0  0  0
   14.7630   11.6320   11.3110 C   0  0  0  0  0  0  0  0  0  0  0  0
   14.8770   10.6130   12.3320 C   0  0  0  0  0  0  0  0  0  0  0  0
   15.2490    9.3080   11.9030 C   0  0  0  0  0  0  0  0  0  0  0  0
   15.4980    9.0830   10.5230 C   0  0  0  0  0  0  0  0  0  0  0  0
   15.3690   10.1150    9.6390 C   0  0  0  0  0  0  0  0  0  0  0  0
   15.0130   11.3610    9.9860 N   0  0  0  0  0  0  0  0  0  0  0  0
   14.6660   10.8250   13.7210 C   0  0  0  0  0  0  0  0  0  0  0  0
   14.8170    9.8070   14.6180 C   0  0  0  0  0  0  0  0  0  0  0  0
   15.1720    8.5370   14.1920 C   0  0  0  0  0  0  0  0  0  0  0  0
   15.3810    8.2820   12.8690 C   0  0  0  0  0  0  0  0  0  0  0  0
  2  1  1  0
  2  7  2  0
  7  6  1  0
  6  5  2  0
  5  4  1  0
  4 11  2  0
 11 10  1  0
 10  9  2  0
  9  8  1  0
  8  3  2  0
  3  2  1  0
  4  3  1  0
M  END
>  <id>  (367) 
6155

>  <inchikey>  (367) 
OSILBMSORKFRTB-UHFFFAOYSA-N

>  <alias>  (367) 
c1440e

>  <smiles>  (367) 
Nc1nccc2ccccc12

>  <path>  (367) 
/opt/xchem-fragalysis-2/maxwin/CHIKV_Mac_20240920/aligned_files/c1440e/c1440e_hippo.pdb

>  <compound>  (367) 
OSILBMSORKFRTB-UHFFFAOYSA-N

>  <target>  (367) 
CHIKV_Mac

>  <tags>  (367) 
['[Other] Adenine site', 'hits', '[Other] fragment screen']

>  <reference>  (367) 
None

>  <exports>  (367) 
['/opt/xchem-fragalysis-2/maxwin/CHIKV_HIPPO/web_resources/hit_poses.sdf', '/opt/xchem-fragalysis-2/maxwin/CHIKV_HIPPO/web/web_resources/hit_poses.sdf', '/opt/xchem-fragalysis-2/maxwin/CHIKV_HIPPO/web2/web_resources/hit_poses.sdf']

>  <observation_longname>  (367) 
nan

>  <ConformerSites alias>  (367) 
nan

>  <CanonSites alias>  (367) 
nan

>  <CrystalformSites alias>  (367) 
nan

>  <Quatassemblies alias>  (367) 
nan

>  <Crystalforms alias>  (367) 
nan

$$$$
c1440g
     RDKit          3D

 11 12  0  0  0  0  0  0  0  0999 V2000
   14.4740   12.9280   11.6360 N   0  0  0  0  0  0  0  0  0  0  0  0
   14.7340   11.6550   11.3160 C   0  0  0  0  0  0  0  0  0  0  0  0
   14.8540   10.6190   12.3210 C   0  0  0  0  0  0  0  0  0  0  0  0
   15.1240    9.2990   11.8570 C   0  0  0  0  0  0  0  0  0  0  0  0
   15.2730    9.0830   10.4670 C   0  0  0  0  0  0  0  0  0  0  0  0
   15.1460   10.1350    9.6090 C   0  0  0  0  0  0  0  0  0  0  0  0
   14.8810   11.3940    9.9960 N   0  0  0  0  0  0  0  0  0  0  0  0
   14.6980   10.8150   13.7210 C   0  0  0  0  0  0  0  0  0  0  0  0
   14.8040    9.7730   14.5940 C   0  0  0  0  0  0  0  0  0  0  0  0
   15.0600    8.4860   14.1340 C   0  0  0  0  0  0  0  0  0  0  0  0
   15.2210    8.2450   12.8000 C   0  0  0  0  0  0  0  0  0  0  0  0
  2  1  1  0
  2  7  2  0
  7  6  1  0
  6  5  2  0
  5  4  1  0
  4 11  2  0
 11 10  1  0
 10  9  2  0
  9  8  1  0
  8  3  2  0
  3  2  1  0
  4  3  1  0
M  END
>  <id>  (368) 
6156

>  <inchikey>  (368) 
OSILBMSORKFRTB-UHFFFAOYSA-N

>  <alias>  (368) 
c1440g

>  <smiles>  (368) 
Nc1nccc2ccccc12

>  <path>  (368) 
/opt/xchem-fragalysis-2/maxwin/CHIKV_Mac_20240920/aligned_files/c1440g/c1440g_hippo.pdb

>  <compound>  (368) 
OSILBMSORKFRTB-UHFFFAOYSA-N

>  <target>  (368) 
CHIKV_Mac

>  <tags>  (368) 
['[Other] Adenine site', 'hits', '[Other] fragment screen']

>  <reference>  (368) 
None

>  <exports>  (368) 
['/opt/xchem-fragalysis-2/maxwin/CHIKV_HIPPO/web_resources/hit_poses.sdf', '/opt/xchem-fragalysis-2/maxwin/CHIKV_HIPPO/web/web_resources/hit_poses.sdf', '/opt/xchem-fragalysis-2/maxwin/CHIKV_HIPPO/web2/web_resources/hit_poses.sdf']

>  <observation_longname>  (368) 
CHIKV_MacB-x1440_D_401_1_CHIKV_MacB-x2352+C+401+1

>  <ConformerSites alias>  (368) 
1a - c2352/C/401

>  <CanonSites alias>  (368) 
1 - c2352/C/401/1

>  <CrystalformSites alias>  (368) 
F1a - c0270/A/304

>  <Quatassemblies alias>  (368) 
A1 - monomer

>  <Crystalforms alias>  (368) 
F1 - P31-4fold-NCS

$$$$
c1444a
     RDKit          3D

 10 11  0  0  0  0  0  0  0  0999 V2000
   14.8580    9.3400    9.2370 C   0  0  0  0  0  0  0  0  0  0  0  0
   14.7750   10.1390   10.4890 C   0  0  0  0  0  0  0  0  0  0  0  0
   15.0340    9.6050   11.7140 N   0  0  0  0  0  0  0  0  0  0  0  0
   14.9010   10.6240   12.6410 C   0  0  0  0  0  0  0  0  0  0  0  0
   14.5520   11.7580   11.9090 C   0  0  0  0  0  0  0  0  0  0  0  0
   14.4720   11.4310   10.5550 N   0  0  0  0  0  0  0  0  0  0  0  0
   15.0660   10.6620   14.0200 C   0  0  0  0  0  0  0  0  0  0  0  0
   14.8840   11.8800   14.6620 C   0  0  0  0  0  0  0  0  0  0  0  0
   14.5380   13.0230   13.9420 C   0  0  0  0  0  0  0  0  0  0  0  0
   14.3640   12.9730   12.5640 C   0  0  0  0  0  0  0  0  0  0  0  0
  2  1  1  0
  2  6  2  0
  6  5  1  0
  5 10  2  0
 10  9  1  0
  9  8  2  0
  8  7  1  0
  7  4  2  0
  5  4  1  0
  4  3  1  0
  3  2  1  0
M  END
>  <id>  (369) 
6157

>  <inchikey>  (369) 
LDZYRENCLPUXAX-UHFFFAOYSA-N

>  <alias>  (369) 
c1444a

>  <smiles>  (369) 
Cc1nc2ccccc2[nH]1

>  <path>  (369) 
/opt/xchem-fragalysis-2/maxwin/CHIKV_Mac_20240920/aligned_files/c1444a/c1444a_hippo.pdb

>  <compound>  (369) 
LDZYRENCLPUXAX-UHFFFAOYSA-N

>  <target>  (369) 
CHIKV_Mac

>  <tags>  (369) 
['[Other] Adenine site', 'hits', '[Other] fragment screen']

>  <reference>  (369) 
None

>  <exports>  (369) 
['/opt/xchem-fragalysis-2/maxwin/CHIKV_HIPPO/web_resources/hit_poses.sdf', '/opt/xchem-fragalysis-2/maxwin/CHIKV_HIPPO/web/web_resources/hit_poses.sdf', '/opt/xchem-fragalysis-2/maxwin/CHIKV_HIPPO/web2/web_resources/hit_poses.sdf']

>  <observation_longname>  (369) 
nan

>  <ConformerSites alias>  (369) 
nan

>  <CanonSites alias>  (369) 
nan

>  <CrystalformSites alias>  (369) 
nan

>  <Quatassemblies alias>  (369) 
nan

>  <Crystalforms alias>  (369) 
nan

$$$$
c1444b
     RDKit          3D

 10 11  0  0  0  0  0  0  0  0999 V2000
   14.4840    8.8370    9.6250 C   0  0  0  0  0  0  0  0  0  0  0  0
   14.6470    9.6960   10.8320 C   0  0  0  0  0  0  0  0  0  0  0  0
   14.8300    9.1790   12.0810 N   0  0  0  0  0  0  0  0  0  0  0  0
   14.8570   10.2460   12.9640 C   0  0  0  0  0  0  0  0  0  0  0  0
   14.6900   11.3880   12.1810 C   0  0  0  0  0  0  0  0  0  0  0  0
   14.5670   11.0220   10.8410 N   0  0  0  0  0  0  0  0  0  0  0  0
   14.9940   10.3180   14.3450 C   0  0  0  0  0  0  0  0  0  0  0  0
   14.9560   11.5730   14.9380 C   0  0  0  0  0  0  0  0  0  0  0  0
   14.7850   12.7230   14.1690 C   0  0  0  0  0  0  0  0  0  0  0  0
   14.6500   12.6420   12.7890 C   0  0  0  0  0  0  0  0  0  0  0  0
  2  1  1  0
  2  6  2  0
  6  5  1  0
  5 10  2  0
 10  9  1  0
  9  8  2  0
  8  7  1  0
  7  4  2  0
  5  4  1  0
  4  3  1  0
  3  2  1  0
M  END
>  <id>  (370) 
6158

>  <inchikey>  (370) 
LDZYRENCLPUXAX-UHFFFAOYSA-N

>  <alias>  (370) 
c1444b

>  <smiles>  (370) 
Cc1nc2ccccc2[nH]1

>  <path>  (370) 
/opt/xchem-fragalysis-2/maxwin/CHIKV_Mac_20240920/aligned_files/c1444b/c1444b_hippo.pdb

>  <compound>  (370) 
LDZYRENCLPUXAX-UHFFFAOYSA-N

>  <target>  (370) 
CHIKV_Mac

>  <tags>  (370) 
['[Other] Adenine site', 'hits', '[Other] fragment screen']

>  <reference>  (370) 
None

>  <exports>  (370) 
['/opt/xchem-fragalysis-2/maxwin/CHIKV_HIPPO/web_resources/hit_poses.sdf', '/opt/xchem-fragalysis-2/maxwin/CHIKV_HIPPO/web/web_resources/hit_poses.sdf', '/opt/xchem-fragalysis-2/maxwin/CHIKV_HIPPO/web2/web_resources/hit_poses.sdf']

>  <observation_longname>  (370) 
nan

>  <ConformerSites alias>  (370) 
nan

>  <CanonSites alias>  (370) 
nan

>  <CrystalformSites alias>  (370) 
nan

>  <Quatassemblies alias>  (370) 
nan

>  <Crystalforms alias>  (370) 
nan

$$$$
c1444c
     RDKit          3D

 10 11  0  0  0  0  0  0  0  0999 V2000
   15.1580    9.5810    9.2160 C   0  0  0  0  0  0  0  0  0  0  0  0
   14.9740   10.2880   10.5130 C   0  0  0  0  0  0  0  0  0  0  0  0
   15.0970    9.6550   11.7120 N   0  0  0  0  0  0  0  0  0  0  0  0
   14.9150   10.6100   12.6980 C   0  0  0  0  0  0  0  0  0  0  0  0
   14.6750   11.8080   12.0240 C   0  0  0  0  0  0  0  0  0  0  0  0
   14.7100   11.5840   10.6480 N   0  0  0  0  0  0  0  0  0  0  0  0
   14.9500   10.5430   14.0850 C   0  0  0  0  0  0  0  0  0  0  0  0
   14.7390   11.7130   14.7980 C   0  0  0  0  0  0  0  0  0  0  0  0
   14.4990   12.9180   14.1400 C   0  0  0  0  0  0  0  0  0  0  0  0
   14.4640   12.9780   12.7520 C   0  0  0  0  0  0  0  0  0  0  0  0
  2  1  1  0
  2  6  2  0
  6  5  1  0
  5 10  2  0
 10  9  1  0
  9  8  2  0
  8  7  1  0
  7  4  2  0
  5  4  1  0
  4  3  1  0
  3  2  1  0
M  END
>  <id>  (371) 
6159

>  <inchikey>  (371) 
LDZYRENCLPUXAX-UHFFFAOYSA-N

>  <alias>  (371) 
c1444c

>  <smiles>  (371) 
Cc1nc2ccccc2[nH]1

>  <path>  (371) 
/opt/xchem-fragalysis-2/maxwin/CHIKV_Mac_20240920/aligned_files/c1444c/c1444c_hippo.pdb

>  <compound>  (371) 
LDZYRENCLPUXAX-UHFFFAOYSA-N

>  <target>  (371) 
CHIKV_Mac

>  <tags>  (371) 
['[Other] Adenine site', 'hits', '[Other] fragment screen']

>  <reference>  (371) 
None

>  <exports>  (371) 
['/opt/xchem-fragalysis-2/maxwin/CHIKV_HIPPO/web_resources/hit_poses.sdf', '/opt/xchem-fragalysis-2/maxwin/CHIKV_HIPPO/web/web_resources/hit_poses.sdf', '/opt/xchem-fragalysis-2/maxwin/CHIKV_HIPPO/web2/web_resources/hit_poses.sdf']

>  <observation_longname>  (371) 
nan

>  <ConformerSites alias>  (371) 
nan

>  <CanonSites alias>  (371) 
nan

>  <CrystalformSites alias>  (371) 
nan

>  <Quatassemblies alias>  (371) 
nan

>  <Crystalforms alias>  (371) 
nan

$$$$
c1445a
     RDKit          3D

 10 10  0  0  0  0  0  0  0  0999 V2000
   14.7090   11.4090    9.6980 O   0  0  0  0  0  0  0  0  0  0  0  0
   14.7180   11.5920   10.9380 C   0  0  0  0  0  0  0  0  0  0  0  0
   14.4900   12.7860   11.4810 N   0  0  0  0  0  0  0  0  0  0  0  0
   14.9920   10.4440   11.8570 C   0  0  0  0  0  0  0  0  0  0  0  0
   15.2300    9.1630   11.3130 C   0  0  0  0  0  0  0  0  0  0  0  0
   15.3270    8.9500    9.9720 O   0  0  0  0  0  0  0  0  0  0  0  0
   15.3280    8.0570   12.1510 C   0  0  0  0  0  0  0  0  0  0  0  0
   15.1750    8.2040   13.5210 C   0  0  0  0  0  0  0  0  0  0  0  0
   14.9210    9.4460   14.0620 C   0  0  0  0  0  0  0  0  0  0  0  0
   14.8250   10.5620   13.2410 C   0  0  0  0  0  0  0  0  0  0  0  0
  3  2  1  0
  2  1  2  0
  4  2  1  0
  4 10  2  0
 10  9  1  0
  9  8  2  0
  8  7  1  0
  7  5  2  0
  5  4  1  0
  6  5  1  0
M  END
>  <id>  (372) 
6160

>  <inchikey>  (372) 
SKZKKFZAGNVIMN-UHFFFAOYSA-N

>  <alias>  (372) 
c1445a

>  <smiles>  (372) 
NC(=O)c1ccccc1O

>  <path>  (372) 
/opt/xchem-fragalysis-2/maxwin/CHIKV_Mac_20240920/aligned_files/c1445a/c1445a_hippo.pdb

>  <compound>  (372) 
SKZKKFZAGNVIMN-UHFFFAOYSA-N

>  <target>  (372) 
CHIKV_Mac

>  <tags>  (372) 
['[Other] Adenine site', 'hits', '[Other] fragment screen']

>  <reference>  (372) 
None

>  <exports>  (372) 
['/opt/xchem-fragalysis-2/maxwin/CHIKV_HIPPO/web_resources/hit_poses.sdf', '/opt/xchem-fragalysis-2/maxwin/CHIKV_HIPPO/web/web_resources/hit_poses.sdf', '/opt/xchem-fragalysis-2/maxwin/CHIKV_HIPPO/web2/web_resources/hit_poses.sdf']

>  <observation_longname>  (372) 
nan

>  <ConformerSites alias>  (372) 
nan

>  <CanonSites alias>  (372) 
nan

>  <CrystalformSites alias>  (372) 
nan

>  <Quatassemblies alias>  (372) 
nan

>  <Crystalforms alias>  (372) 
nan

$$$$
c1445b
     RDKit          3D

 10 10  0  0  0  0  0  0  0  0999 V2000
   22.1960   14.4090   12.6640 O   0  0  0  0  0  0  0  0  0  0  0  0
   22.2200   13.3390   12.0430 C   0  0  0  0  0  0  0  0  0  0  0  0
   23.3460   12.6660   11.8300 N   0  0  0  0  0  0  0  0  0  0  0  0
   20.9470   12.7670   11.5100 C   0  0  0  0  0  0  0  0  0  0  0  0
   19.7270   13.0930   12.1390 C   0  0  0  0  0  0  0  0  0  0  0  0
   19.6630   14.0100   13.1350 O   0  0  0  0  0  0  0  0  0  0  0  0
   18.5510   12.4610   11.7490 C   0  0  0  0  0  0  0  0  0  0  0  0
   18.5760   11.5040   10.7500 C   0  0  0  0  0  0  0  0  0  0  0  0
   19.7620   11.1780   10.1330 C   0  0  0  0  0  0  0  0  0  0  0  0
   20.9430   11.8040   10.5000 C   0  0  0  0  0  0  0  0  0  0  0  0
  3  2  1  0
  2  1  2  0
  4  2  1  0
  4 10  2  0
 10  9  1  0
  9  8  2  0
  8  7  1  0
  7  5  2  0
  5  4  1  0
  6  5  1  0
M  END
>  <id>  (373) 
6161

>  <inchikey>  (373) 
SKZKKFZAGNVIMN-UHFFFAOYSA-N

>  <alias>  (373) 
c1445b

>  <smiles>  (373) 
NC(=O)c1ccccc1O

>  <path>  (373) 
/opt/xchem-fragalysis-2/maxwin/CHIKV_Mac_20240920/aligned_files/c1445b/c1445b_hippo.pdb

>  <compound>  (373) 
SKZKKFZAGNVIMN-UHFFFAOYSA-N

>  <target>  (373) 
CHIKV_Mac

>  <tags>  (373) 
['hits', '[Other] Arg144 pocket', '[Other] fragment screen']

>  <reference>  (373) 
None

>  <exports>  (373) 
['/opt/xchem-fragalysis-2/maxwin/CHIKV_HIPPO/web_resources/hit_poses.sdf', '/opt/xchem-fragalysis-2/maxwin/CHIKV_HIPPO/web/web_resources/hit_poses.sdf', '/opt/xchem-fragalysis-2/maxwin/CHIKV_HIPPO/web2/web_resources/hit_poses.sdf']

>  <observation_longname>  (373) 
nan

>  <ConformerSites alias>  (373) 
nan

>  <CanonSites alias>  (373) 
nan

>  <CrystalformSites alias>  (373) 
nan

>  <Quatassemblies alias>  (373) 
nan

>  <Crystalforms alias>  (373) 
nan

$$$$
c1445c
     RDKit          3D

 10 10  0  0  0  0  0  0  0  0999 V2000
   14.8100   11.3670    9.7000 O   0  0  0  0  0  0  0  0  0  0  0  0
   14.8610   11.5440   10.9430 C   0  0  0  0  0  0  0  0  0  0  0  0
   14.8260   12.7460   11.4870 N   0  0  0  0  0  0  0  0  0  0  0  0
   14.9500   10.3800   11.8810 C   0  0  0  0  0  0  0  0  0  0  0  0
   15.2610    9.1040   11.3750 C   0  0  0  0  0  0  0  0  0  0  0  0
   15.4130    8.8650   10.0470 O   0  0  0  0  0  0  0  0  0  0  0  0
   15.4060    8.0270   12.2470 C   0  0  0  0  0  0  0  0  0  0  0  0
   15.2370    8.2060   13.6090 C   0  0  0  0  0  0  0  0  0  0  0  0
   14.9390    9.4450   14.1100 C   0  0  0  0  0  0  0  0  0  0  0  0
   14.8000   10.5310   13.2600 C   0  0  0  0  0  0  0  0  0  0  0  0
  3  2  1  0
  2  1  2  0
  4  2  1  0
  4 10  2  0
 10  9  1  0
  9  8  2  0
  8  7  1  0
  7  5  2  0
  5  4  1  0
  6  5  1  0
M  END
>  <id>  (374) 
6162

>  <inchikey>  (374) 
SKZKKFZAGNVIMN-UHFFFAOYSA-N

>  <alias>  (374) 
c1445c

>  <smiles>  (374) 
NC(=O)c1ccccc1O

>  <path>  (374) 
/opt/xchem-fragalysis-2/maxwin/CHIKV_Mac_20240920/aligned_files/c1445c/c1445c_hippo.pdb

>  <compound>  (374) 
SKZKKFZAGNVIMN-UHFFFAOYSA-N

>  <target>  (374) 
CHIKV_Mac

>  <tags>  (374) 
['[Other] Adenine site', 'hits', '[Other] fragment screen']

>  <reference>  (374) 
None

>  <exports>  (374) 
['/opt/xchem-fragalysis-2/maxwin/CHIKV_HIPPO/web_resources/hit_poses.sdf', '/opt/xchem-fragalysis-2/maxwin/CHIKV_HIPPO/web/web_resources/hit_poses.sdf', '/opt/xchem-fragalysis-2/maxwin/CHIKV_HIPPO/web2/web_resources/hit_poses.sdf']

>  <observation_longname>  (374) 
nan

>  <ConformerSites alias>  (374) 
nan

>  <CanonSites alias>  (374) 
nan

>  <CrystalformSites alias>  (374) 
nan

>  <Quatassemblies alias>  (374) 
nan

>  <Crystalforms alias>  (374) 
nan

$$$$
c1445d
     RDKit          3D

 10 10  0  0  0  0  0  0  0  0999 V2000
   22.8500   13.0160   13.1970 O   0  0  0  0  0  0  0  0  0  0  0  0
   22.4420   13.0730   12.0280 C   0  0  0  0  0  0  0  0  0  0  0  0
   23.1030   13.7070   11.0730 N   0  0  0  0  0  0  0  0  0  0  0  0
   21.1530   12.4120   11.6590 C   0  0  0  0  0  0  0  0  0  0  0  0
   19.9440   12.9240   12.1700 C   0  0  0  0  0  0  0  0  0  0  0  0
   19.9200   13.8270   13.1840 O   0  0  0  0  0  0  0  0  0  0  0  0
   18.7280   12.5130   11.6260 C   0  0  0  0  0  0  0  0  0  0  0  0
   18.7060   11.6050   10.5830 C   0  0  0  0  0  0  0  0  0  0  0  0
   19.8830   11.1080   10.0720 C   0  0  0  0  0  0  0  0  0  0  0  0
   21.0990   11.5040   10.6020 C   0  0  0  0  0  0  0  0  0  0  0  0
  3  2  1  0
  2  1  2  0
  4  2  1  0
  4 10  2  0
 10  9  1  0
  9  8  2  0
  8  7  1  0
  7  5  2  0
  5  4  1  0
  6  5  1  0
M  END
>  <id>  (375) 
6163

>  <inchikey>  (375) 
SKZKKFZAGNVIMN-UHFFFAOYSA-N

>  <alias>  (375) 
c1445d

>  <smiles>  (375) 
NC(=O)c1ccccc1O

>  <path>  (375) 
/opt/xchem-fragalysis-2/maxwin/CHIKV_Mac_20240920/aligned_files/c1445d/c1445d_hippo.pdb

>  <compound>  (375) 
SKZKKFZAGNVIMN-UHFFFAOYSA-N

>  <target>  (375) 
CHIKV_Mac

>  <tags>  (375) 
['hits', '[Other] Arg144 pocket', '[Other] fragment screen']

>  <reference>  (375) 
None

>  <exports>  (375) 
['/opt/xchem-fragalysis-2/maxwin/CHIKV_HIPPO/web_resources/hit_poses.sdf', '/opt/xchem-fragalysis-2/maxwin/CHIKV_HIPPO/web/web_resources/hit_poses.sdf', '/opt/xchem-fragalysis-2/maxwin/CHIKV_HIPPO/web2/web_resources/hit_poses.sdf']

>  <observation_longname>  (375) 
nan

>  <ConformerSites alias>  (375) 
nan

>  <CanonSites alias>  (375) 
nan

>  <CrystalformSites alias>  (375) 
nan

>  <Quatassemblies alias>  (375) 
nan

>  <Crystalforms alias>  (375) 
nan

$$$$
c1445f
     RDKit          3D

 10 10  0  0  0  0  0  0  0  0999 V2000
   14.7630   11.3420    9.8140 O   0  0  0  0  0  0  0  0  0  0  0  0
   14.8040   11.5550   11.0280 C   0  0  0  0  0  0  0  0  0  0  0  0
   14.7240   12.7810   11.5260 N   0  0  0  0  0  0  0  0  0  0  0  0
   14.9540   10.4020   11.9760 C   0  0  0  0  0  0  0  0  0  0  0  0
   15.2870    9.1280   11.4650 C   0  0  0  0  0  0  0  0  0  0  0  0
   15.5000    8.9310   10.1430 O   0  0  0  0  0  0  0  0  0  0  0  0
   15.4350    8.0480   12.3280 C   0  0  0  0  0  0  0  0  0  0  0  0
   15.2640    8.2200   13.6920 C   0  0  0  0  0  0  0  0  0  0  0  0
   14.9420    9.4570   14.2000 C   0  0  0  0  0  0  0  0  0  0  0  0
   14.7900   10.5420   13.3520 C   0  0  0  0  0  0  0  0  0  0  0  0
  3  2  1  0
  2  1  2  0
  4  2  1  0
  4 10  2  0
 10  9  1  0
  9  8  2  0
  8  7  1  0
  7  5  2  0
  5  4  1  0
  6  5  1  0
M  END
>  <id>  (376) 
6164

>  <inchikey>  (376) 
SKZKKFZAGNVIMN-UHFFFAOYSA-N

>  <alias>  (376) 
c1445f

>  <smiles>  (376) 
NC(=O)c1ccccc1O

>  <path>  (376) 
/opt/xchem-fragalysis-2/maxwin/CHIKV_Mac_20240920/aligned_files/c1445f/c1445f_hippo.pdb

>  <compound>  (376) 
SKZKKFZAGNVIMN-UHFFFAOYSA-N

>  <target>  (376) 
CHIKV_Mac

>  <tags>  (376) 
['[Other] Adenine site', 'hits', '[Other] fragment screen']

>  <reference>  (376) 
None

>  <exports>  (376) 
['/opt/xchem-fragalysis-2/maxwin/CHIKV_HIPPO/web_resources/hit_poses.sdf', '/opt/xchem-fragalysis-2/maxwin/CHIKV_HIPPO/web/web_resources/hit_poses.sdf', '/opt/xchem-fragalysis-2/maxwin/CHIKV_HIPPO/web2/web_resources/hit_poses.sdf']

>  <observation_longname>  (376) 
nan

>  <ConformerSites alias>  (376) 
nan

>  <CanonSites alias>  (376) 
nan

>  <CrystalformSites alias>  (376) 
nan

>  <Quatassemblies alias>  (376) 
nan

>  <Crystalforms alias>  (376) 
nan

$$$$
c1445e
     RDKit          3D

 10 10  0  0  0  0  0  0  0  0999 V2000
   14.5820   11.3680    9.8280 O   0  0  0  0  0  0  0  0  0  0  0  0
   14.7320   11.6150   11.0310 C   0  0  0  0  0  0  0  0  0  0  0  0
   14.6190   12.8430   11.5230 N   0  0  0  0  0  0  0  0  0  0  0  0
   15.0450   10.5080   11.9900 C   0  0  0  0  0  0  0  0  0  0  0  0
   15.3460    9.2230   11.4910 C   0  0  0  0  0  0  0  0  0  0  0  0
   15.6820    9.0070   10.1870 O   0  0  0  0  0  0  0  0  0  0  0  0
   15.4020    8.1370   12.3570 C   0  0  0  0  0  0  0  0  0  0  0  0
   15.1800    8.3160   13.7120 C   0  0  0  0  0  0  0  0  0  0  0  0
   14.8970    9.5670   14.2110 C   0  0  0  0  0  0  0  0  0  0  0  0
   14.8290   10.6590   13.3630 C   0  0  0  0  0  0  0  0  0  0  0  0
  3  2  1  0
  2  1  2  0
  4  2  1  0
  4 10  2  0
 10  9  1  0
  9  8  2  0
  8  7  1  0
  7  5  2  0
  5  4  1  0
  6  5  1  0
M  END
>  <id>  (377) 
6165

>  <inchikey>  (377) 
SKZKKFZAGNVIMN-UHFFFAOYSA-N

>  <alias>  (377) 
c1445e

>  <smiles>  (377) 
NC(=O)c1ccccc1O

>  <path>  (377) 
/opt/xchem-fragalysis-2/maxwin/CHIKV_Mac_20240920/aligned_files/c1445e/c1445e_hippo.pdb

>  <compound>  (377) 
SKZKKFZAGNVIMN-UHFFFAOYSA-N

>  <target>  (377) 
CHIKV_Mac

>  <tags>  (377) 
['[Other] Adenine site', 'hits', '[Other] fragment screen']

>  <reference>  (377) 
None

>  <exports>  (377) 
['/opt/xchem-fragalysis-2/maxwin/CHIKV_HIPPO/web_resources/hit_poses.sdf', '/opt/xchem-fragalysis-2/maxwin/CHIKV_HIPPO/web/web_resources/hit_poses.sdf', '/opt/xchem-fragalysis-2/maxwin/CHIKV_HIPPO/web2/web_resources/hit_poses.sdf']

>  <observation_longname>  (377) 
nan

>  <ConformerSites alias>  (377) 
nan

>  <CanonSites alias>  (377) 
nan

>  <CrystalformSites alias>  (377) 
nan

>  <Quatassemblies alias>  (377) 
nan

>  <Crystalforms alias>  (377) 
nan

$$$$
c1454a
     RDKit          3D

  9  9  0  0  0  0  0  0  0  0999 V2000
   15.0400    7.7140   11.5540 Br  0  0  0  0  0  0  0  0  0  0  0  0
   14.7560    9.5740   11.7390 C   0  0  0  0  0  0  0  0  0  0  0  0
   14.7910   10.4180   10.6350 C   0  0  0  0  0  0  0  0  0  0  0  0
   15.0060    9.9230    9.2340 C   0  0  0  0  0  0  0  0  0  0  0  0
   14.5570   10.0820   13.0110 C   0  0  0  0  0  0  0  0  0  0  0  0
   14.4010   11.4430   13.1690 C   0  0  0  0  0  0  0  0  0  0  0  0
   14.4480   12.2590   12.0240 C   0  0  0  0  0  0  0  0  0  0  0  0
   14.6400   11.7440   10.7860 N   0  0  0  0  0  0  0  0  0  0  0  0
   14.3220   13.5890   12.1150 N   0  0  0  0  0  0  0  0  0  0  0  0
  4  3  1  0
  3  8  2  0
  8  7  1  0
  9  7  1  0
  7  6  2  0
  6  5  1  0
  5  2  2  0
  3  2  1  0
  2  1  1  0
M  END
>  <id>  (378) 
6166

>  <inchikey>  (378) 
SEOZHXRTVJPQPZ-UHFFFAOYSA-N

>  <alias>  (378) 
c1454a

>  <smiles>  (378) 
Cc1nc(N)ccc1Br

>  <path>  (378) 
/opt/xchem-fragalysis-2/maxwin/CHIKV_Mac_20240920/aligned_files/c1454a/c1454a_hippo.pdb

>  <compound>  (378) 
SEOZHXRTVJPQPZ-UHFFFAOYSA-N

>  <target>  (378) 
CHIKV_Mac

>  <tags>  (378) 
['[Other] Adenine site', 'hits', '[Other] fragment screen']

>  <reference>  (378) 
None

>  <exports>  (378) 
['/opt/xchem-fragalysis-2/maxwin/CHIKV_HIPPO/web_resources/hit_poses.sdf', '/opt/xchem-fragalysis-2/maxwin/CHIKV_HIPPO/web/web_resources/hit_poses.sdf', '/opt/xchem-fragalysis-2/maxwin/CHIKV_HIPPO/web2/web_resources/hit_poses.sdf']

>  <observation_longname>  (378) 
nan

>  <ConformerSites alias>  (378) 
nan

>  <CanonSites alias>  (378) 
nan

>  <CrystalformSites alias>  (378) 
nan

>  <Quatassemblies alias>  (378) 
nan

>  <Crystalforms alias>  (378) 
nan

$$$$
c1454b
     RDKit          3D

  9  9  0  0  0  0  0  0  0  0999 V2000
   15.2600    7.3020   11.8020 Br  0  0  0  0  0  0  0  0  0  0  0  0
   14.9530    9.1700   11.8940 C   0  0  0  0  0  0  0  0  0  0  0  0
   14.7440    9.9300   10.7310 C   0  0  0  0  0  0  0  0  0  0  0  0
   14.7910    9.3460    9.3500 C   0  0  0  0  0  0  0  0  0  0  0  0
   14.9290    9.7770   13.1400 C   0  0  0  0  0  0  0  0  0  0  0  0
   14.6750   11.1340   13.2210 C   0  0  0  0  0  0  0  0  0  0  0  0
   14.4410   11.8510   12.0230 C   0  0  0  0  0  0  0  0  0  0  0  0
   14.4940   11.2490   10.8100 N   0  0  0  0  0  0  0  0  0  0  0  0
   14.0920   13.1560   12.0420 N   0  0  0  0  0  0  0  0  0  0  0  0
  4  3  1  0
  3  8  2  0
  8  7  1  0
  9  7  1  0
  7  6  2  0
  6  5  1  0
  5  2  2  0
  3  2  1  0
  2  1  1  0
M  END
>  <id>  (379) 
6167

>  <inchikey>  (379) 
SEOZHXRTVJPQPZ-UHFFFAOYSA-N

>  <alias>  (379) 
c1454b

>  <smiles>  (379) 
Cc1nc(N)ccc1Br

>  <path>  (379) 
/opt/xchem-fragalysis-2/maxwin/CHIKV_Mac_20240920/aligned_files/c1454b/c1454b_hippo.pdb

>  <compound>  (379) 
SEOZHXRTVJPQPZ-UHFFFAOYSA-N

>  <target>  (379) 
CHIKV_Mac

>  <tags>  (379) 
['[Other] Adenine site', 'hits', '[Other] fragment screen']

>  <reference>  (379) 
None

>  <exports>  (379) 
['/opt/xchem-fragalysis-2/maxwin/CHIKV_HIPPO/web_resources/hit_poses.sdf', '/opt/xchem-fragalysis-2/maxwin/CHIKV_HIPPO/web/web_resources/hit_poses.sdf', '/opt/xchem-fragalysis-2/maxwin/CHIKV_HIPPO/web2/web_resources/hit_poses.sdf']

>  <observation_longname>  (379) 
nan

>  <ConformerSites alias>  (379) 
nan

>  <CanonSites alias>  (379) 
nan

>  <CrystalformSites alias>  (379) 
nan

>  <Quatassemblies alias>  (379) 
nan

>  <Crystalforms alias>  (379) 
nan

$$$$
c1454c
     RDKit          3D

  9  9  0  0  0  0  0  0  0  0999 V2000
   15.1760    7.6340   11.6420 Br  0  0  0  0  0  0  0  0  0  0  0  0
   14.8720    9.5090   11.6960 C   0  0  0  0  0  0  0  0  0  0  0  0
   14.9520   10.3030   10.5270 C   0  0  0  0  0  0  0  0  0  0  0  0
   15.3180    9.7520    9.1810 C   0  0  0  0  0  0  0  0  0  0  0  0
   14.5500   10.0910   12.9100 C   0  0  0  0  0  0  0  0  0  0  0  0
   14.3060   11.4510   12.9590 C   0  0  0  0  0  0  0  0  0  0  0  0
   14.4050   12.2040   11.7630 C   0  0  0  0  0  0  0  0  0  0  0  0
   14.7100   11.6250   10.5780 N   0  0  0  0  0  0  0  0  0  0  0  0
   14.2590   13.5420   11.7630 N   0  0  0  0  0  0  0  0  0  0  0  0
  4  3  1  0
  3  8  2  0
  8  7  1  0
  9  7  1  0
  7  6  2  0
  6  5  1  0
  5  2  2  0
  3  2  1  0
  2  1  1  0
M  END
>  <id>  (380) 
6168

>  <inchikey>  (380) 
SEOZHXRTVJPQPZ-UHFFFAOYSA-N

>  <alias>  (380) 
c1454c

>  <smiles>  (380) 
Cc1nc(N)ccc1Br

>  <path>  (380) 
/opt/xchem-fragalysis-2/maxwin/CHIKV_Mac_20240920/aligned_files/c1454c/c1454c_hippo.pdb

>  <compound>  (380) 
SEOZHXRTVJPQPZ-UHFFFAOYSA-N

>  <target>  (380) 
CHIKV_Mac

>  <tags>  (380) 
['[Other] Adenine site', 'hits', '[Other] fragment screen']

>  <reference>  (380) 
None

>  <exports>  (380) 
['/opt/xchem-fragalysis-2/maxwin/CHIKV_HIPPO/web_resources/hit_poses.sdf', '/opt/xchem-fragalysis-2/maxwin/CHIKV_HIPPO/web/web_resources/hit_poses.sdf', '/opt/xchem-fragalysis-2/maxwin/CHIKV_HIPPO/web2/web_resources/hit_poses.sdf']

>  <observation_longname>  (380) 
nan

>  <ConformerSites alias>  (380) 
nan

>  <CanonSites alias>  (380) 
nan

>  <CrystalformSites alias>  (380) 
nan

>  <Quatassemblies alias>  (380) 
nan

>  <Crystalforms alias>  (380) 
nan

$$$$
c1454d
     RDKit          3D

  9  9  0  0  0  0  0  0  0  0999 V2000
   15.3540    7.6190   11.8220 Br  0  0  0  0  0  0  0  0  0  0  0  0
   14.9480    9.4680   11.6950 C   0  0  0  0  0  0  0  0  0  0  0  0
   14.9830   10.1430   10.4640 C   0  0  0  0  0  0  0  0  0  0  0  0
   15.3640    9.4840    9.1730 C   0  0  0  0  0  0  0  0  0  0  0  0
   14.6370   10.1500   12.8580 C   0  0  0  0  0  0  0  0  0  0  0  0
   14.3620   11.5000   12.7890 C   0  0  0  0  0  0  0  0  0  0  0  0
   14.3880   12.1310   11.5260 C   0  0  0  0  0  0  0  0  0  0  0  0
   14.7000   11.4550   10.3960 N   0  0  0  0  0  0  0  0  0  0  0  0
   14.0790   13.4250   11.3910 N   0  0  0  0  0  0  0  0  0  0  0  0
  4  3  1  0
  3  8  2  0
  8  7  1  0
  9  7  1  0
  7  6  2  0
  6  5  1  0
  5  2  2  0
  3  2  1  0
  2  1  1  0
M  END
>  <id>  (381) 
6169

>  <inchikey>  (381) 
SEOZHXRTVJPQPZ-UHFFFAOYSA-N

>  <alias>  (381) 
c1454d

>  <smiles>  (381) 
Cc1nc(N)ccc1Br

>  <path>  (381) 
/opt/xchem-fragalysis-2/maxwin/CHIKV_Mac_20240920/aligned_files/c1454d/c1454d_hippo.pdb

>  <compound>  (381) 
SEOZHXRTVJPQPZ-UHFFFAOYSA-N

>  <target>  (381) 
CHIKV_Mac

>  <tags>  (381) 
['[Other] Adenine site', 'hits', '[Other] fragment screen']

>  <reference>  (381) 
None

>  <exports>  (381) 
['/opt/xchem-fragalysis-2/maxwin/CHIKV_HIPPO/web_resources/hit_poses.sdf', '/opt/xchem-fragalysis-2/maxwin/CHIKV_HIPPO/web/web_resources/hit_poses.sdf', '/opt/xchem-fragalysis-2/maxwin/CHIKV_HIPPO/web2/web_resources/hit_poses.sdf']

>  <observation_longname>  (381) 
nan

>  <ConformerSites alias>  (381) 
nan

>  <CanonSites alias>  (381) 
nan

>  <CrystalformSites alias>  (381) 
nan

>  <Quatassemblies alias>  (381) 
nan

>  <Crystalforms alias>  (381) 
nan

$$$$
c2129a
     RDKit          3D

 19 20  0  0  0  0  0  0  0  0999 V2000
   16.8460   -1.6080   17.3530 O   0  0  0  0  0  0  0  0  0  0  0  0
   16.4320   -0.4600   17.4550 C   0  0  0  0  0  0  0  0  0  0  0  0
   15.4120   -0.1290   18.3970 N   0  0  0  0  0  0  0  0  0  0  0  0
   14.9280   -1.1870   19.2750 C   0  0  0  0  0  0  0  0  0  0  0  0
   15.9130   -1.6170   20.3200 C   0  0  0  0  0  0  0  0  0  0  0  0
   17.0860   -2.8510   20.0130 S   0  0  0  0  0  0  0  0  0  0  0  0
   17.6730   -2.6600   21.5970 C   0  0  0  0  0  0  0  0  0  0  0  0
   16.9720   -1.7120   22.2360 C   0  0  0  0  0  0  0  0  0  0  0  0
   15.9670   -1.1120   21.5120 N   0  0  0  0  0  0  0  0  0  0  0  0
   15.0420    1.2350   18.7470 C   0  0  0  0  0  0  0  0  0  0  0  0
   17.0480    0.5850   16.5840 C   0  0  0  0  0  0  0  0  0  0  0  0
   18.3650    0.6240   16.6150 N   0  0  0  0  0  0  0  0  0  0  0  0
   16.2840    1.4120   15.7020 C   0  0  0  0  0  0  0  0  0  0  0  0
   16.9400    2.2460   14.8720 C   0  0  0  0  0  0  0  0  0  0  0  0
   18.3740    2.3190   14.8570 C   0  0  0  0  0  0  0  0  0  0  0  0
   19.0330    3.0270   14.1120 O   0  0  0  0  0  0  0  0  0  0  0  0
   18.9960    1.4830   15.7600 N   0  0  0  0  0  0  0  0  0  0  0  0
   20.4550    1.4700   15.8760 C   0  0  0  0  0  0  0  0  0  0  0  0
   20.9250    2.0170   17.1980 C   0  0  0  0  0  0  0  0  0  0  0  0
 19 18  1  0
 18 17  1  0
 17 12  1  0
 12 11  2  0
 13 11  1  0
 14 13  2  0
 15 14  1  0
 17 15  1  0
 16 15  2  0
 11  2  1  0
  2  1  2  0
  3  2  1  0
 10  3  1  0
  4  3  1  0
  5  4  1  0
  5  9  2  0
  9  8  1  0
  8  7  2  0
  7  6  1  0
  6  5  1  0
M  END
>  <id>  (382) 
6170

>  <inchikey>  (382) 
ZAZXYKHEXHZITN-UHFFFAOYSA-N

>  <alias>  (382) 
c2129a

>  <smiles>  (382) 
CCn1nc(C(=O)N(C)Cc2nccs2)ccc1=O

>  <path>  (382) 
/opt/xchem-fragalysis-2/maxwin/CHIKV_Mac_20240920/aligned_files/c2129a/c2129a_hippo.pdb

>  <compound>  (382) 
ZAZXYKHEXHZITN-UHFFFAOYSA-N

>  <target>  (382) 
CHIKV_Mac

>  <tags>  (382) 
['hits', '[Other] Trp148 site', '[Series] catalogue compound']

>  <reference>  (382) 
None

>  <exports>  (382) 
['/opt/xchem-fragalysis-2/maxwin/CHIKV_HIPPO/web_resources/hit_poses.sdf', '/opt/xchem-fragalysis-2/maxwin/CHIKV_HIPPO/web/web_resources/hit_poses.sdf', '/opt/xchem-fragalysis-2/maxwin/CHIKV_HIPPO/web2/web_resources/hit_poses.sdf']

>  <observation_longname>  (382) 
nan

>  <ConformerSites alias>  (382) 
nan

>  <CanonSites alias>  (382) 
nan

>  <CrystalformSites alias>  (382) 
nan

>  <Quatassemblies alias>  (382) 
nan

>  <Crystalforms alias>  (382) 
nan

$$$$
c2129b
     RDKit          3D

 19 20  0  0  0  0  0  0  0  0999 V2000
   16.9710   -1.6920   17.4020 O   0  0  0  0  0  0  0  0  0  0  0  0
   16.5630   -0.5430   17.5190 C   0  0  0  0  0  0  0  0  0  0  0  0
   15.5260   -0.2260   18.4480 N   0  0  0  0  0  0  0  0  0  0  0  0
   14.9530   -1.3100   19.2340 C   0  0  0  0  0  0  0  0  0  0  0  0
   15.8350   -1.7400   20.3670 C   0  0  0  0  0  0  0  0  0  0  0  0
   17.0240   -2.9810   20.1690 S   0  0  0  0  0  0  0  0  0  0  0  0
   17.4670   -2.7890   21.8010 C   0  0  0  0  0  0  0  0  0  0  0  0
   16.7150   -1.8360   22.3720 C   0  0  0  0  0  0  0  0  0  0  0  0
   15.7820   -1.2330   21.5590 N   0  0  0  0  0  0  0  0  0  0  0  0
   15.1500    1.1280   18.8260 C   0  0  0  0  0  0  0  0  0  0  0  0
   17.1690    0.5080   16.6480 C   0  0  0  0  0  0  0  0  0  0  0  0
   18.4860    0.5220   16.5720 N   0  0  0  0  0  0  0  0  0  0  0  0
   16.3570    1.3830   15.8630 C   0  0  0  0  0  0  0  0  0  0  0  0
   16.9570    2.2390   15.0150 C   0  0  0  0  0  0  0  0  0  0  0  0
   18.3840    2.2880   14.8830 C   0  0  0  0  0  0  0  0  0  0  0  0
   18.9950    3.0270   14.1230 O   0  0  0  0  0  0  0  0  0  0  0  0
   19.0620    1.4050   15.6970 N   0  0  0  0  0  0  0  0  0  0  0  0
   20.5270    1.3870   15.7110 C   0  0  0  0  0  0  0  0  0  0  0  0
   21.0920    2.0780   16.9250 C   0  0  0  0  0  0  0  0  0  0  0  0
 19 18  1  0
 18 17  1  0
 17 12  1  0
 12 11  2  0
 13 11  1  0
 14 13  2  0
 15 14  1  0
 17 15  1  0
 16 15  2  0
 11  2  1  0
  2  1  2  0
  3  2  1  0
 10  3  1  0
  4  3  1  0
  5  4  1  0
  5  9  2  0
  9  8  1  0
  8  7  2  0
  7  6  1  0
  6  5  1  0
M  END
>  <id>  (383) 
6171

>  <inchikey>  (383) 
ZAZXYKHEXHZITN-UHFFFAOYSA-N

>  <alias>  (383) 
c2129b

>  <smiles>  (383) 
CCn1nc(C(=O)N(C)Cc2nccs2)ccc1=O

>  <path>  (383) 
/opt/xchem-fragalysis-2/maxwin/CHIKV_Mac_20240920/aligned_files/c2129b/c2129b_hippo.pdb

>  <compound>  (383) 
ZAZXYKHEXHZITN-UHFFFAOYSA-N

>  <target>  (383) 
CHIKV_Mac

>  <tags>  (383) 
['[Other] New', 'hits', '[Other] Trp148 site']

>  <reference>  (383) 
None

>  <exports>  (383) 
['/opt/xchem-fragalysis-2/maxwin/CHIKV_HIPPO/web_resources/hit_poses.sdf', '/opt/xchem-fragalysis-2/maxwin/CHIKV_HIPPO/web/web_resources/hit_poses.sdf', '/opt/xchem-fragalysis-2/maxwin/CHIKV_HIPPO/web2/web_resources/hit_poses.sdf']

>  <observation_longname>  (383) 
nan

>  <ConformerSites alias>  (383) 
nan

>  <CanonSites alias>  (383) 
nan

>  <CrystalformSites alias>  (383) 
nan

>  <Quatassemblies alias>  (383) 
nan

>  <Crystalforms alias>  (383) 
nan

$$$$
c2129c
     RDKit          3D

 19 20  0  0  0  0  0  0  0  0999 V2000
   16.9690   -1.6570   17.3380 O   0  0  0  0  0  0  0  0  0  0  0  0
   16.5520   -0.5090   17.4620 C   0  0  0  0  0  0  0  0  0  0  0  0
   15.5280   -0.2010   18.4020 N   0  0  0  0  0  0  0  0  0  0  0  0
   14.9830   -1.2880   19.2000 C   0  0  0  0  0  0  0  0  0  0  0  0
   15.8980   -1.6990   20.3130 C   0  0  0  0  0  0  0  0  0  0  0  0
   17.0800   -2.9440   20.1050 S   0  0  0  0  0  0  0  0  0  0  0  0
   17.5560   -2.7380   21.7230 C   0  0  0  0  0  0  0  0  0  0  0  0
   16.8190   -1.7770   22.3000 C   0  0  0  0  0  0  0  0  0  0  0  0
   15.8730   -1.1800   21.5000 N   0  0  0  0  0  0  0  0  0  0  0  0
   15.1490    1.1510   18.7920 C   0  0  0  0  0  0  0  0  0  0  0  0
   17.1440    0.5530   16.5920 C   0  0  0  0  0  0  0  0  0  0  0  0
   18.4610    0.5940   16.5240 N   0  0  0  0  0  0  0  0  0  0  0  0
   16.3200    1.4100   15.8010 C   0  0  0  0  0  0  0  0  0  0  0  0
   16.9100    2.2670   14.9450 C   0  0  0  0  0  0  0  0  0  0  0  0
   18.3370    2.3350   14.8120 C   0  0  0  0  0  0  0  0  0  0  0  0
   18.9390    3.0540   14.0210 O   0  0  0  0  0  0  0  0  0  0  0  0
   19.0270    1.4780   15.6450 N   0  0  0  0  0  0  0  0  0  0  0  0
   20.4890    1.4780   15.6650 C   0  0  0  0  0  0  0  0  0  0  0  0
   21.0410    2.1590   16.8880 C   0  0  0  0  0  0  0  0  0  0  0  0
 19 18  1  0
 18 17  1  0
 17 12  1  0
 12 11  2  0
 13 11  1  0
 14 13  2  0
 15 14  1  0
 17 15  1  0
 16 15  2  0
 11  2  1  0
  2  1  2  0
  3  2  1  0
 10  3  1  0
  4  3  1  0
  5  4  1  0
  5  9  2  0
  9  8  1  0
  8  7  2  0
  7  6  1  0
  6  5  1  0
M  END
>  <id>  (384) 
6172

>  <inchikey>  (384) 
ZAZXYKHEXHZITN-UHFFFAOYSA-N

>  <alias>  (384) 
c2129c

>  <smiles>  (384) 
CCn1nc(C(=O)N(C)Cc2nccs2)ccc1=O

>  <path>  (384) 
/opt/xchem-fragalysis-2/maxwin/CHIKV_Mac_20240920/aligned_files/c2129c/c2129c_hippo.pdb

>  <compound>  (384) 
ZAZXYKHEXHZITN-UHFFFAOYSA-N

>  <target>  (384) 
CHIKV_Mac

>  <tags>  (384) 
['[Other] New', 'hits', '[Other] Trp148 site']

>  <reference>  (384) 
None

>  <exports>  (384) 
['/opt/xchem-fragalysis-2/maxwin/CHIKV_HIPPO/web_resources/hit_poses.sdf', '/opt/xchem-fragalysis-2/maxwin/CHIKV_HIPPO/web/web_resources/hit_poses.sdf', '/opt/xchem-fragalysis-2/maxwin/CHIKV_HIPPO/web2/web_resources/hit_poses.sdf']

>  <observation_longname>  (384) 
nan

>  <ConformerSites alias>  (384) 
nan

>  <CanonSites alias>  (384) 
nan

>  <CrystalformSites alias>  (384) 
nan

>  <Quatassemblies alias>  (384) 
nan

>  <Crystalforms alias>  (384) 
nan

$$$$
c2129d
     RDKit          3D

 19 20  0  0  0  0  0  0  0  0999 V2000
   16.9190   -1.4980   17.0840 O   0  0  0  0  0  0  0  0  0  0  0  0
   16.5380   -0.3380   17.2210 C   0  0  0  0  0  0  0  0  0  0  0  0
   15.5110    0.0010   18.1430 N   0  0  0  0  0  0  0  0  0  0  0  0
   14.8740   -1.0960   18.8570 C   0  0  0  0  0  0  0  0  0  0  0  0
   15.6960   -1.5400   20.0280 C   0  0  0  0  0  0  0  0  0  0  0  0
   16.9950   -2.6680   19.8520 S   0  0  0  0  0  0  0  0  0  0  0  0
   17.2860   -2.5650   21.5230 C   0  0  0  0  0  0  0  0  0  0  0  0
   16.4190   -1.7150   22.0890 C   0  0  0  0  0  0  0  0  0  0  0  0
   15.5090   -1.1240   21.2410 N   0  0  0  0  0  0  0  0  0  0  0  0
   15.4060    1.3220   18.7480 C   0  0  0  0  0  0  0  0  0  0  0  0
   17.2000    0.7120   16.3970 C   0  0  0  0  0  0  0  0  0  0  0  0
   18.5170    0.6750   16.3550 N   0  0  0  0  0  0  0  0  0  0  0  0
   16.4410    1.6470   15.6240 C   0  0  0  0  0  0  0  0  0  0  0  0
   17.1010    2.5160   14.8330 C   0  0  0  0  0  0  0  0  0  0  0  0
   18.5350    2.5200   14.7480 C   0  0  0  0  0  0  0  0  0  0  0  0
   19.1960    3.2910   14.0640 O   0  0  0  0  0  0  0  0  0  0  0  0
   19.1540    1.5650   15.5280 N   0  0  0  0  0  0  0  0  0  0  0  0
   20.6040    1.3690   15.4470 C   0  0  0  0  0  0  0  0  0  0  0  0
   21.2820    1.4380   16.8010 C   0  0  0  0  0  0  0  0  0  0  0  0
 19 18  1  0
 18 17  1  0
 17 12  1  0
 12 11  2  0
 13 11  1  0
 14 13  2  0
 15 14  1  0
 17 15  1  0
 16 15  2  0
 11  2  1  0
  2  1  2  0
  3  2  1  0
 10  3  1  0
  4  3  1  0
  5  4  1  0
  5  9  2  0
  9  8  1  0
  8  7  2  0
  7  6  1  0
  6  5  1  0
M  END
>  <id>  (385) 
6173

>  <inchikey>  (385) 
ZAZXYKHEXHZITN-UHFFFAOYSA-N

>  <alias>  (385) 
c2129d

>  <smiles>  (385) 
CCn1nc(C(=O)N(C)Cc2nccs2)ccc1=O

>  <path>  (385) 
/opt/xchem-fragalysis-2/maxwin/CHIKV_Mac_20240920/aligned_files/c2129d/c2129d_hippo.pdb

>  <compound>  (385) 
ZAZXYKHEXHZITN-UHFFFAOYSA-N

>  <target>  (385) 
CHIKV_Mac

>  <tags>  (385) 
['[Other] New', 'hits', '[Other] Trp148 site']

>  <reference>  (385) 
None

>  <exports>  (385) 
['/opt/xchem-fragalysis-2/maxwin/CHIKV_HIPPO/web_resources/hit_poses.sdf', '/opt/xchem-fragalysis-2/maxwin/CHIKV_HIPPO/web/web_resources/hit_poses.sdf', '/opt/xchem-fragalysis-2/maxwin/CHIKV_HIPPO/web2/web_resources/hit_poses.sdf']

>  <observation_longname>  (385) 
nan

>  <ConformerSites alias>  (385) 
nan

>  <CanonSites alias>  (385) 
nan

>  <CrystalformSites alias>  (385) 
nan

>  <Quatassemblies alias>  (385) 
nan

>  <Crystalforms alias>  (385) 
nan

$$$$
c2182a
     RDKit          3D

 25 27  0  0  0  0  0  0  0  0999 V2000
    8.2730    4.7800   14.3240 Br  0  0  0  0  0  0  0  0  0  0  0  0
   10.1060    5.1450   13.9850 C   0  0  0  0  0  0  0  0  0  0  0  0
   10.5290    5.3530   12.6910 C   0  0  0  0  0  0  0  0  0  0  0  0
   11.8700    5.5960   12.4540 C   0  0  0  0  0  0  0  0  0  0  0  0
   10.9890    5.1860   15.0390 C   0  0  0  0  0  0  0  0  0  0  0  0
   12.3250    5.4290   14.7860 C   0  0  0  0  0  0  0  0  0  0  0  0
   12.7870    5.6290   13.4940 C   0  0  0  0  0  0  0  0  0  0  0  0
   14.2700    5.7960   13.2270 C   0  0  1  0  0  0  0  0  0  0  0  0
   14.8800    4.4790   12.6890 C   0  0  1  0  0  0  0  0  0  0  0  0
   16.2230    4.7440   12.0460 C   0  0  0  0  0  0  0  0  0  0  0  0
   16.1480    4.8180   10.7610 O   0  0  0  0  0  0  0  0  0  0  0  0
   17.2490    4.8470   12.6680 O   0  0  0  0  0  0  0  0  0  0  0  0
   15.0250    3.4360   13.7930 C   0  0  0  0  0  0  0  0  0  0  0  0
   14.5960    6.9080   12.3340 N   0  0  0  0  0  0  0  0  0  0  0  0
   14.6310    8.1730   12.7690 C   0  0  0  0  0  0  0  0  0  0  0  0
   14.4420    8.4740   13.9400 O   0  0  0  0  0  0  0  0  0  0  0  0
   14.8420    9.2210   11.7150 C   0  0  0  0  0  0  0  0  0  0  0  0
   14.7130   10.5960   11.9790 C   0  0  0  0  0  0  0  0  0  0  0  0
   14.5060   11.4460   13.1040 C   0  0  0  0  0  0  0  0  0  0  0  0
   14.4110   12.7120   12.6240 C   0  0  0  0  0  0  0  0  0  0  0  0
   14.5510   12.7150   11.2570 N   0  0  0  0  0  0  0  0  0  0  0  0
   14.7420   11.4250   10.8480 C   0  0  0  0  0  0  0  0  0  0  0  0
   14.9030   11.0160    9.5840 N   0  0  0  0  0  0  0  0  0  0  0  0
   15.0350    9.6920    9.4870 C   0  0  0  0  0  0  0  0  0  0  0  0
   15.0180    8.7780   10.4590 N   0  0  0  0  0  0  0  0  0  0  0  0
  9 13  1  1
 10  9  1  0
 12 10  2  0
 11 10  1  0
  9  8  1  0
  8 14  1  6
 15 14  1  0
 16 15  2  0
 17 15  1  0
 17 25  1  0
 25 24  2  0
 24 23  1  0
 23 22  2  0
 22 21  1  0
 21 20  1  0
 20 19  2  0
 19 18  1  0
 18 17  2  0
 22 18  1  0
  8  7  1  0
  7  4  2  0
  4  3  1  0
  3  2  2  0
  2  1  1  0
  5  2  1  0
  6  5  2  0
  7  6  1  0
M  END
>  <id>  (386) 
6174

>  <inchikey>  (386) 
BBYUVETWVSEHPK-TVQRCGJNSA-N

>  <alias>  (386) 
c2182a

>  <smiles>  (386) 
C[C@H](C(=O)O)[C@@H](NC(=O)c1ncnc2[nH]ccc12)c1ccc(Br)cc1

>  <path>  (386) 
/opt/xchem-fragalysis-2/maxwin/CHIKV_Mac_20240920/aligned_files/c2182a/c2182a_hippo.pdb

>  <compound>  (386) 
BBYUVETWVSEHPK-UHFFFAOYSA-N

>  <target>  (386) 
CHIKV_Mac

>  <tags>  (386) 
['hits', '[Other] Oxyanion site', '[Other] Phosphate site', '[Other] Adenine site', '[Series] ASAP toolbox']

>  <reference>  (386) 
None

>  <exports>  (386) 
['/opt/xchem-fragalysis-2/maxwin/CHIKV_HIPPO/web_resources/hit_poses.sdf', '/opt/xchem-fragalysis-2/maxwin/CHIKV_HIPPO/web/web_resources/hit_poses.sdf', '/opt/xchem-fragalysis-2/maxwin/CHIKV_HIPPO/web2/web_resources/hit_poses.sdf']

>  <observation_longname>  (386) 
nan

>  <ConformerSites alias>  (386) 
nan

>  <CanonSites alias>  (386) 
nan

>  <CrystalformSites alias>  (386) 
nan

>  <Quatassemblies alias>  (386) 
nan

>  <Crystalforms alias>  (386) 
nan

$$$$
c2182b
     RDKit          3D

 25 27  0  0  0  0  0  0  0  0999 V2000
    8.1350    4.5910   14.8790 Br  0  0  0  0  0  0  0  0  0  0  0  0
    9.9050    5.1260   14.4350 C   0  0  0  0  0  0  0  0  0  0  0  0
   10.3570    4.9690   13.1430 C   0  0  0  0  0  0  0  0  0  0  0  0
   11.6660    5.3010   12.8440 C   0  0  0  0  0  0  0  0  0  0  0  0
   10.7260    5.6270   15.4210 C   0  0  0  0  0  0  0  0  0  0  0  0
   12.0340    5.9510   15.1070 C   0  0  0  0  0  0  0  0  0  0  0  0
   12.5270    5.7800   13.8230 C   0  0  0  0  0  0  0  0  0  0  0  0
   13.9810    6.0670   13.5090 C   0  0  1  0  0  0  0  0  0  0  0  0
   14.6790    4.8450   12.8600 C   0  0  1  0  0  0  0  0  0  0  0  0
   15.9780    5.2630   12.2040 C   0  0  0  0  0  0  0  0  0  0  0  0
   15.8770    5.4100   10.9200 O   0  0  0  0  0  0  0  0  0  0  0  0
   17.0020    5.4290   12.8280 O   0  0  0  0  0  0  0  0  0  0  0  0
   14.9820    3.7530   13.8790 C   0  0  0  0  0  0  0  0  0  0  0  0
   14.1240    7.2260   12.6450 N   0  0  0  0  0  0  0  0  0  0  0  0
   14.9060    8.2750   12.9410 C   0  0  0  0  0  0  0  0  0  0  0  0
   15.5450    8.3610   13.9850 O   0  0  0  0  0  0  0  0  0  0  0  0
   14.9450    9.3550   11.9050 C   0  0  0  0  0  0  0  0  0  0  0  0
   14.6720   10.7060   12.1730 C   0  0  0  0  0  0  0  0  0  0  0  0
   14.4070   11.5340   13.3030 C   0  0  0  0  0  0  0  0  0  0  0  0
   14.1960   12.7870   12.8270 C   0  0  0  0  0  0  0  0  0  0  0  0
   14.3160   12.8030   11.4590 N   0  0  0  0  0  0  0  0  0  0  0  0
   14.6090   11.5350   11.0450 C   0  0  0  0  0  0  0  0  0  0  0  0
   14.7980   11.1440    9.7780 N   0  0  0  0  0  0  0  0  0  0  0  0
   15.0720    9.8450    9.6780 C   0  0  0  0  0  0  0  0  0  0  0  0
   15.1620    8.9330   10.6470 N   0  0  0  0  0  0  0  0  0  0  0  0
  9 13  1  1
 10  9  1  0
 12 10  2  0
 11 10  1  0
  9  8  1  0
  8 14  1  6
 15 14  1  0
 16 15  2  0
 17 15  1  0
 17 25  1  0
 25 24  2  0
 24 23  1  0
 23 22  2  0
 22 21  1  0
 21 20  1  0
 20 19  2  0
 19 18  1  0
 18 17  2  0
 22 18  1  0
  8  7  1  0
  7  4  2  0
  4  3  1  0
  3  2  2  0
  2  1  1  0
  5  2  1  0
  6  5  2  0
  7  6  1  0
M  END
>  <id>  (387) 
6175

>  <inchikey>  (387) 
BBYUVETWVSEHPK-TVQRCGJNSA-N

>  <alias>  (387) 
c2182b

>  <smiles>  (387) 
C[C@H](C(=O)O)[C@@H](NC(=O)c1ncnc2[nH]ccc12)c1ccc(Br)cc1

>  <path>  (387) 
/opt/xchem-fragalysis-2/maxwin/CHIKV_Mac_20240920/aligned_files/c2182b/c2182b_hippo.pdb

>  <compound>  (387) 
BBYUVETWVSEHPK-UHFFFAOYSA-N

>  <target>  (387) 
CHIKV_Mac

>  <tags>  (387) 
['hits', '[Other] Oxyanion site', '[Other] New', '[Other] Phosphate site', '[Other] Adenine site', '[Series] ASAP toolbox']

>  <reference>  (387) 
None

>  <exports>  (387) 
['/opt/xchem-fragalysis-2/maxwin/CHIKV_HIPPO/web_resources/hit_poses.sdf', '/opt/xchem-fragalysis-2/maxwin/CHIKV_HIPPO/web/web_resources/hit_poses.sdf', '/opt/xchem-fragalysis-2/maxwin/CHIKV_HIPPO/web2/web_resources/hit_poses.sdf']

>  <observation_longname>  (387) 
CHIKV_MacB-x2182_B_204_1_CHIKV_MacB-x2352+C+401+1

>  <ConformerSites alias>  (387) 
1a - c2352/C/401

>  <CanonSites alias>  (387) 
1 - c2352/C/401/1

>  <CrystalformSites alias>  (387) 
F1a - c0270/A/304

>  <Quatassemblies alias>  (387) 
A1 - monomer

>  <Crystalforms alias>  (387) 
F1 - P31-4fold-NCS

$$$$
c2182c
     RDKit          3D

 25 27  0  0  0  0  0  0  0  0999 V2000
    8.3540    4.6870   14.0380 Br  0  0  0  0  0  0  0  0  0  0  0  0
   10.1750    5.1450   13.7800 C   0  0  0  0  0  0  0  0  0  0  0  0
   10.9940    5.2770   14.8740 C   0  0  0  0  0  0  0  0  0  0  0  0
   12.3300    5.5620   14.6800 C   0  0  0  0  0  0  0  0  0  0  0  0
   10.6550    5.3160   12.5030 C   0  0  0  0  0  0  0  0  0  0  0  0
   11.9940    5.5990   12.3230 C   0  0  0  0  0  0  0  0  0  0  0  0
   12.8520    5.7110   13.4050 C   0  0  0  0  0  0  0  0  0  0  0  0
   14.3370    5.8930   13.1960 C   0  0  1  0  0  0  0  0  0  0  0  0
   14.9740    4.5950   12.6440 C   0  0  1  0  0  0  0  0  0  0  0  0
   16.3270    4.8890   12.0340 C   0  0  0  0  0  0  0  0  0  0  0  0
   17.2910    5.0500   12.8840 O   0  0  0  0  0  0  0  0  0  0  0  0
   16.4650    4.9420   10.8460 O   0  0  0  0  0  0  0  0  0  0  0  0
   15.1120    3.5230   13.7210 C   0  0  0  0  0  0  0  0  0  0  0  0
   14.6160    7.0080   12.3070 N   0  0  0  0  0  0  0  0  0  0  0  0
   14.6220    8.2800   12.7230 C   0  0  0  0  0  0  0  0  0  0  0  0
   14.4790    8.5950   13.8980 O   0  0  0  0  0  0  0  0  0  0  0  0
   14.8010    9.3110   11.6490 C   0  0  0  0  0  0  0  0  0  0  0  0
   14.6860   10.6900   11.8830 C   0  0  0  0  0  0  0  0  0  0  0  0
   14.4410   11.5610   12.9820 C   0  0  0  0  0  0  0  0  0  0  0  0
   14.4260   12.8240   12.4820 C   0  0  0  0  0  0  0  0  0  0  0  0
   14.6500   12.8030   11.1270 N   0  0  0  0  0  0  0  0  0  0  0  0
   14.8110   11.5010   10.7440 C   0  0  0  0  0  0  0  0  0  0  0  0
   15.0330   11.0680    9.4960 N   0  0  0  0  0  0  0  0  0  0  0  0
   15.1310    9.7410    9.4270 C   0  0  0  0  0  0  0  0  0  0  0  0
   15.0310    8.8440   10.4100 N   0  0  0  0  0  0  0  0  0  0  0  0
  9 13  1  1
 10  9  1  0
 12 10  2  0
 11 10  1  0
  9  8  1  0
  8 14  1  6
 15 14  1  0
 16 15  2  0
 17 15  1  0
 17 25  1  0
 25 24  2  0
 24 23  1  0
 23 22  2  0
 22 21  1  0
 21 20  1  0
 20 19  2  0
 19 18  1  0
 18 17  2  0
 22 18  1  0
  8  7  1  0
  7  4  2  0
  4  3  1  0
  3  2  2  0
  2  1  1  0
  5  2  1  0
  6  5  2  0
  7  6  1  0
M  END
>  <id>  (388) 
6176

>  <inchikey>  (388) 
BBYUVETWVSEHPK-TVQRCGJNSA-N

>  <alias>  (388) 
c2182c

>  <smiles>  (388) 
C[C@H](C(=O)O)[C@@H](NC(=O)c1ncnc2[nH]ccc12)c1ccc(Br)cc1

>  <path>  (388) 
/opt/xchem-fragalysis-2/maxwin/CHIKV_Mac_20240920/aligned_files/c2182c/c2182c_hippo.pdb

>  <compound>  (388) 
BBYUVETWVSEHPK-UHFFFAOYSA-N

>  <target>  (388) 
CHIKV_Mac

>  <tags>  (388) 
['hits', '[Other] Oxyanion site', '[Other] New', '[Other] Phosphate site', '[Other] Adenine site', '[Series] ASAP toolbox']

>  <reference>  (388) 
None

>  <exports>  (388) 
['/opt/xchem-fragalysis-2/maxwin/CHIKV_HIPPO/web_resources/hit_poses.sdf', '/opt/xchem-fragalysis-2/maxwin/CHIKV_HIPPO/web/web_resources/hit_poses.sdf', '/opt/xchem-fragalysis-2/maxwin/CHIKV_HIPPO/web2/web_resources/hit_poses.sdf']

>  <observation_longname>  (388) 
nan

>  <ConformerSites alias>  (388) 
nan

>  <CanonSites alias>  (388) 
nan

>  <CrystalformSites alias>  (388) 
nan

>  <Quatassemblies alias>  (388) 
nan

>  <Crystalforms alias>  (388) 
nan

$$$$
c2182d
     RDKit          3D

 25 27  0  0  0  0  0  0  0  0999 V2000
    8.2280    4.5480   14.5150 Br  0  0  0  0  0  0  0  0  0  0  0  0
   10.0210    5.0530   14.1510 C   0  0  0  0  0  0  0  0  0  0  0  0
   10.8660    5.3340   15.1990 C   0  0  0  0  0  0  0  0  0  0  0  0
   12.1790    5.6720   14.9310 C   0  0  0  0  0  0  0  0  0  0  0  0
   10.4540    5.1180   12.8460 C   0  0  0  0  0  0  0  0  0  0  0  0
   11.7720    5.4590   12.5950 C   0  0  0  0  0  0  0  0  0  0  0  0
   12.6540    5.7250   13.6320 C   0  0  0  0  0  0  0  0  0  0  0  0
   14.1190    5.9760   13.3590 C   0  0  1  0  0  0  0  0  0  0  0  0
   14.8100    4.6970   12.8340 C   0  0  1  0  0  0  0  0  0  0  0  0
   16.1620    5.0230   12.2330 C   0  0  0  0  0  0  0  0  0  0  0  0
   17.0830    5.2220   13.1260 O   0  0  0  0  0  0  0  0  0  0  0  0
   16.3550    5.0690   11.0440 O   0  0  0  0  0  0  0  0  0  0  0  0
   14.9920    3.6810   13.9440 C   0  0  0  0  0  0  0  0  0  0  0  0
   14.3340    7.0640   12.4360 N   0  0  0  0  0  0  0  0  0  0  0  0
   14.6260    8.2960   12.8660 C   0  0  0  0  0  0  0  0  0  0  0  0
   14.6830    8.5870   14.0540 O   0  0  0  0  0  0  0  0  0  0  0  0
   14.8280    9.3230   11.7910 C   0  0  0  0  0  0  0  0  0  0  0  0
   14.7370   10.7030   12.0300 C   0  0  0  0  0  0  0  0  0  0  0  0
   14.5760   11.5790   13.1390 C   0  0  0  0  0  0  0  0  0  0  0  0
   14.5430   12.8390   12.6380 C   0  0  0  0  0  0  0  0  0  0  0  0
   14.6770   12.8140   11.2720 N   0  0  0  0  0  0  0  0  0  0  0  0
   14.7980   11.5100   10.8850 C   0  0  0  0  0  0  0  0  0  0  0  0
   14.9440   11.0700    9.6280 N   0  0  0  0  0  0  0  0  0  0  0  0
   15.0300    9.7420    9.5550 C   0  0  0  0  0  0  0  0  0  0  0  0
   14.9870    8.8480   10.5440 N   0  0  0  0  0  0  0  0  0  0  0  0
  9 13  1  1
 10  9  1  0
 12 10  2  0
 11 10  1  0
  9  8  1  0
  8 14  1  6
 15 14  1  0
 16 15  2  0
 17 15  1  0
 17 25  1  0
 25 24  2  0
 24 23  1  0
 23 22  2  0
 22 21  1  0
 21 20  1  0
 20 19  2  0
 19 18  1  0
 18 17  2  0
 22 18  1  0
  8  7  1  0
  7  4  2  0
  4  3  1  0
  3  2  2  0
  2  1  1  0
  5  2  1  0
  6  5  2  0
  7  6  1  0
M  END
>  <id>  (389) 
6177

>  <inchikey>  (389) 
BBYUVETWVSEHPK-TVQRCGJNSA-N

>  <alias>  (389) 
c2182d

>  <smiles>  (389) 
C[C@H](C(=O)O)[C@@H](NC(=O)c1ncnc2[nH]ccc12)c1ccc(Br)cc1

>  <path>  (389) 
/opt/xchem-fragalysis-2/maxwin/CHIKV_Mac_20240920/aligned_files/c2182d/c2182d_hippo.pdb

>  <compound>  (389) 
BBYUVETWVSEHPK-UHFFFAOYSA-N

>  <target>  (389) 
CHIKV_Mac

>  <tags>  (389) 
['hits', '[Other] Oxyanion site', '[Other] New', '[Other] Phosphate site', '[Other] Adenine site', '[Series] ASAP toolbox']

>  <reference>  (389) 
None

>  <exports>  (389) 
['/opt/xchem-fragalysis-2/maxwin/CHIKV_HIPPO/web_resources/hit_poses.sdf', '/opt/xchem-fragalysis-2/maxwin/CHIKV_HIPPO/web/web_resources/hit_poses.sdf', '/opt/xchem-fragalysis-2/maxwin/CHIKV_HIPPO/web2/web_resources/hit_poses.sdf']

>  <observation_longname>  (389) 
nan

>  <ConformerSites alias>  (389) 
nan

>  <CanonSites alias>  (389) 
nan

>  <CrystalformSites alias>  (389) 
nan

>  <Quatassemblies alias>  (389) 
nan

>  <Crystalforms alias>  (389) 
nan

$$$$
c2183a
     RDKit          3D

 27 30  0  0  0  0  0  0  0  0999 V2000
   14.3350    8.3320   13.9380 O   0  0  0  0  0  0  0  0  0  0  0  0
   14.3790    8.0590   12.7410 C   0  0  0  0  0  0  0  0  0  0  0  0
   14.5550    9.1290   11.6970 C   0  0  0  0  0  0  0  0  0  0  0  0
   14.5070   10.4990   12.0120 C   0  0  0  0  0  0  0  0  0  0  0  0
   14.4260   11.3240   13.1770 C   0  0  0  0  0  0  0  0  0  0  0  0
   14.3570   12.6090   12.7400 C   0  0  0  0  0  0  0  0  0  0  0  0
   14.3880   12.6480   11.3630 N   0  0  0  0  0  0  0  0  0  0  0  0
   14.5120   11.3650   10.9050 C   0  0  0  0  0  0  0  0  0  0  0  0
   14.6380   10.9910    9.6150 N   0  0  0  0  0  0  0  0  0  0  0  0
   14.7000    9.6680    9.4710 C   0  0  0  0  0  0  0  0  0  0  0  0
   14.6480    8.7210   10.4160 N   0  0  0  0  0  0  0  0  0  0  0  0
   14.1760    6.8180   12.2710 N   0  0  0  0  0  0  0  0  0  0  0  0
   13.8660    5.6980   13.1570 C   0  0  2  0  0  0  0  0  0  0  0  0
   14.3800    4.3930   12.5250 C   0  0  0  0  0  0  0  0  0  0  0  0
   15.8510    4.3950   12.2800 C   0  0  0  0  0  0  0  0  0  0  0  0
   16.4340    4.4200   11.0820 N   0  0  0  0  0  0  0  0  0  0  0  0
   17.7730    4.3810   11.2410 N   0  0  0  0  0  0  0  0  0  0  0  0
   17.9840    4.3350   12.5070 N   0  0  0  0  0  0  0  0  0  0  0  0
   16.8070    4.3460   13.1920 N   0  0  0  0  0  0  0  0  0  0  0  0
   12.3910    5.6230   13.5100 C   0  0  0  0  0  0  0  0  0  0  0  0
   11.9930    5.6580   14.8360 C   0  0  0  0  0  0  0  0  0  0  0  0
   10.6610    5.5540   15.1840 C   0  0  0  0  0  0  0  0  0  0  0  0
   11.4150    5.5060   12.5310 C   0  0  0  0  0  0  0  0  0  0  0  0
   10.0790    5.3950   12.8620 C   0  0  0  0  0  0  0  0  0  0  0  0
    9.7000    5.3980   14.1920 C   0  0  0  0  0  0  0  0  0  0  0  0
    8.3900    5.1540   14.5270 O   0  0  0  0  0  0  0  0  0  0  0  0
    8.1320    4.5370   15.7810 C   0  0  0  0  0  0  0  0  0  0  0  0
 27 26  1  0
 26 25  1  0
 25 22  1  0
 22 21  2  0
 21 20  1  0
 20 13  1  0
 13 14  1  6
 15 14  1  0
 15 19  2  0
 19 18  1  0
 18 17  2  0
 17 16  1  0
 16 15  1  0
 13 12  1  0
 12  2  1  0
  2  1  2  0
  3  2  1  0
  3 11  1  0
 11 10  2  0
 10  9  1  0
  9  8  2  0
  8  7  1  0
  7  6  1  0
  6  5  2  0
  5  4  1  0
  4  3  2  0
  8  4  1  0
 23 20  2  0
 24 23  1  0
 25 24  2  0
M  END
>  <id>  (390) 
6178

>  <inchikey>  (390) 
DMABAHOUGOIDPW-CYBMUJFWSA-N

>  <alias>  (390) 
c2183a

>  <smiles>  (390) 
COc1ccc([C@@H](Cc2nnn[nH]2)NC(=O)c2ncnc3[nH]ccc23)cc1

>  <path>  (390) 
/opt/xchem-fragalysis-2/maxwin/CHIKV_Mac_20240920/aligned_files/c2183a/c2183a_hippo.pdb

>  <compound>  (390) 
DMABAHOUGOIDPW-UHFFFAOYSA-N

>  <target>  (390) 
CHIKV_Mac

>  <tags>  (390) 
['hits', '[Other] Oxyanion site', '[Other] Phosphate site', '[Other] Adenine site', '[Series] ASAP toolbox']

>  <reference>  (390) 
None

>  <exports>  (390) 
['/opt/xchem-fragalysis-2/maxwin/CHIKV_HIPPO/web_resources/hit_poses.sdf', '/opt/xchem-fragalysis-2/maxwin/CHIKV_HIPPO/web/web_resources/hit_poses.sdf', '/opt/xchem-fragalysis-2/maxwin/CHIKV_HIPPO/web2/web_resources/hit_poses.sdf']

>  <observation_longname>  (390) 
nan

>  <ConformerSites alias>  (390) 
nan

>  <CanonSites alias>  (390) 
nan

>  <CrystalformSites alias>  (390) 
nan

>  <Quatassemblies alias>  (390) 
nan

>  <Crystalforms alias>  (390) 
nan

$$$$
c2183b
     RDKit          3D

 27 30  0  0  0  0  0  0  0  0999 V2000
   14.4940    8.2900   13.9580 O   0  0  0  0  0  0  0  0  0  0  0  0
   14.4490    8.0540   12.7540 C   0  0  0  0  0  0  0  0  0  0  0  0
   14.6520    9.1360   11.7260 C   0  0  0  0  0  0  0  0  0  0  0  0
   14.5300   10.5070   12.0240 C   0  0  0  0  0  0  0  0  0  0  0  0
   14.3250   11.3340   13.1700 C   0  0  0  0  0  0  0  0  0  0  0  0
   14.2550   12.6130   12.7210 C   0  0  0  0  0  0  0  0  0  0  0  0
   14.4100   12.6480   11.3560 N   0  0  0  0  0  0  0  0  0  0  0  0
   14.5980   11.3680   10.9150 C   0  0  0  0  0  0  0  0  0  0  0  0
   14.8200   10.9930    9.6380 N   0  0  0  0  0  0  0  0  0  0  0  0
   14.9520    9.6710    9.5130 C   0  0  0  0  0  0  0  0  0  0  0  0
   14.8690    8.7280   10.4600 N   0  0  0  0  0  0  0  0  0  0  0  0
   14.1510    6.8390   12.2680 N   0  0  0  0  0  0  0  0  0  0  0  0
   13.8170    5.7240   13.1500 C   0  0  2  0  0  0  0  0  0  0  0  0
   14.3520    4.4020   12.5570 C   0  0  0  0  0  0  0  0  0  0  0  0
   15.8390    4.3790   12.4050 C   0  0  0  0  0  0  0  0  0  0  0  0
   16.6990    3.8800   13.2950 N   0  0  0  0  0  0  0  0  0  0  0  0
   17.9580    4.0610   12.8430 N   0  0  0  0  0  0  0  0  0  0  0  0
   17.8470    4.6610   11.7040 N   0  0  0  0  0  0  0  0  0  0  0  0
   16.5410    4.8710   11.3970 N   0  0  0  0  0  0  0  0  0  0  0  0
   12.3450    5.6890   13.5140 C   0  0  0  0  0  0  0  0  0  0  0  0
   11.9550    5.8420   14.8330 C   0  0  0  0  0  0  0  0  0  0  0  0
   10.6290    5.7220   15.2060 C   0  0  0  0  0  0  0  0  0  0  0  0
   11.3650    5.4610   12.5580 C   0  0  0  0  0  0  0  0  0  0  0  0
   10.0360    5.3300   12.9130 C   0  0  0  0  0  0  0  0  0  0  0  0
    9.6700    5.4330   14.2460 C   0  0  0  0  0  0  0  0  0  0  0  0
    8.4070    5.1290   14.6920 O   0  0  0  0  0  0  0  0  0  0  0  0
    8.2890    4.0880   15.6310 C   0  0  0  0  0  0  0  0  0  0  0  0
 27 26  1  0
 26 25  1  0
 25 22  1  0
 22 21  2  0
 21 20  1  0
 20 13  1  0
 13 14  1  6
 15 14  1  0
 15 19  2  0
 19 18  1  0
 18 17  2  0
 17 16  1  0
 16 15  1  0
 13 12  1  0
 12  2  1  0
  2  1  2  0
  3  2  1  0
  3 11  1  0
 11 10  2  0
 10  9  1  0
  9  8  2  0
  8  7  1  0
  7  6  1  0
  6  5  2  0
  5  4  1  0
  4  3  2  0
  8  4  1  0
 23 20  2  0
 24 23  1  0
 25 24  2  0
M  END
>  <id>  (391) 
6179

>  <inchikey>  (391) 
DMABAHOUGOIDPW-CYBMUJFWSA-N

>  <alias>  (391) 
c2183b

>  <smiles>  (391) 
COc1ccc([C@@H](Cc2nnn[nH]2)NC(=O)c2ncnc3[nH]ccc23)cc1

>  <path>  (391) 
/opt/xchem-fragalysis-2/maxwin/CHIKV_Mac_20240920/aligned_files/c2183b/c2183b_hippo.pdb

>  <compound>  (391) 
DMABAHOUGOIDPW-UHFFFAOYSA-N

>  <target>  (391) 
CHIKV_Mac

>  <tags>  (391) 
['hits', '[Other] Oxyanion site', '[Other] New', '[Other] Phosphate site', '[Other] Adenine site', '[Series] ASAP toolbox']

>  <reference>  (391) 
None

>  <exports>  (391) 
['/opt/xchem-fragalysis-2/maxwin/CHIKV_HIPPO/web_resources/hit_poses.sdf', '/opt/xchem-fragalysis-2/maxwin/CHIKV_HIPPO/web/web_resources/hit_poses.sdf', '/opt/xchem-fragalysis-2/maxwin/CHIKV_HIPPO/web2/web_resources/hit_poses.sdf']

>  <observation_longname>  (391) 
nan

>  <ConformerSites alias>  (391) 
nan

>  <CanonSites alias>  (391) 
nan

>  <CrystalformSites alias>  (391) 
nan

>  <Quatassemblies alias>  (391) 
nan

>  <Crystalforms alias>  (391) 
nan

$$$$
c2183c
     RDKit          3D

 27 30  0  0  0  0  0  0  0  0999 V2000
   14.1170    8.4550   13.8220 O   0  0  0  0  0  0  0  0  0  0  0  0
   14.1700    8.1390   12.6380 C   0  0  0  0  0  0  0  0  0  0  0  0
   14.4250    9.1730   11.5630 C   0  0  0  0  0  0  0  0  0  0  0  0
   14.4140   10.5500   11.8530 C   0  0  0  0  0  0  0  0  0  0  0  0
   14.1960   11.3950   12.9820 C   0  0  0  0  0  0  0  0  0  0  0  0
   14.3280   12.6750   12.5440 C   0  0  0  0  0  0  0  0  0  0  0  0
   14.6140   12.6930   11.1970 N   0  0  0  0  0  0  0  0  0  0  0  0
   14.6640   11.3990   10.7580 C   0  0  0  0  0  0  0  0  0  0  0  0
   14.9010   11.0020    9.4970 N   0  0  0  0  0  0  0  0  0  0  0  0
   14.8890    9.6720    9.3730 C   0  0  0  0  0  0  0  0  0  0  0  0
   14.6650    8.7420   10.3110 N   0  0  0  0  0  0  0  0  0  0  0  0
   14.0030    6.8720   12.2180 N   0  0  0  0  0  0  0  0  0  0  0  0
   13.7220    5.7830   13.1530 C   0  0  2  0  0  0  0  0  0  0  0  0
   14.3090    4.4510   12.6250 C   0  0  0  0  0  0  0  0  0  0  0  0
   15.7850    4.4790   12.4070 C   0  0  0  0  0  0  0  0  0  0  0  0
   16.7060    4.4180   13.3680 N   0  0  0  0  0  0  0  0  0  0  0  0
   17.9320    4.4630   12.8110 N   0  0  0  0  0  0  0  0  0  0  0  0
   17.7440    4.5570   11.5350 N   0  0  0  0  0  0  0  0  0  0  0  0
   16.4130    4.5730   11.2460 N   0  0  0  0  0  0  0  0  0  0  0  0
   12.2450    5.6500   13.4690 C   0  0  0  0  0  0  0  0  0  0  0  0
   11.3090    5.4010   12.4720 C   0  0  0  0  0  0  0  0  0  0  0  0
    9.9630    5.2640   12.7690 C   0  0  0  0  0  0  0  0  0  0  0  0
   11.7980    5.7640   14.7780 C   0  0  0  0  0  0  0  0  0  0  0  0
   10.4570    5.6390   15.0910 C   0  0  0  0  0  0  0  0  0  0  0  0
    9.5330    5.3870   14.0840 C   0  0  0  0  0  0  0  0  0  0  0  0
    8.1780    5.2680   14.3000 O   0  0  0  0  0  0  0  0  0  0  0  0
    7.6830    5.3150   15.6410 C   0  0  0  0  0  0  0  0  0  0  0  0
 27 26  1  0
 26 25  1  0
 25 22  1  0
 22 21  2  0
 21 20  1  0
 20 13  1  0
 13 14  1  6
 15 14  1  0
 15 19  2  0
 19 18  1  0
 18 17  2  0
 17 16  1  0
 16 15  1  0
 13 12  1  0
 12  2  1  0
  2  1  2  0
  3  2  1  0
  3 11  1  0
 11 10  2  0
 10  9  1  0
  9  8  2  0
  8  7  1  0
  7  6  1  0
  6  5  2  0
  5  4  1  0
  4  3  2  0
  8  4  1  0
 23 20  2  0
 24 23  1  0
 25 24  2  0
M  END
>  <id>  (392) 
6180

>  <inchikey>  (392) 
DMABAHOUGOIDPW-CYBMUJFWSA-N

>  <alias>  (392) 
c2183c

>  <smiles>  (392) 
COc1ccc([C@@H](Cc2nnn[nH]2)NC(=O)c2ncnc3[nH]ccc23)cc1

>  <path>  (392) 
/opt/xchem-fragalysis-2/maxwin/CHIKV_Mac_20240920/aligned_files/c2183c/c2183c_hippo.pdb

>  <compound>  (392) 
DMABAHOUGOIDPW-UHFFFAOYSA-N

>  <target>  (392) 
CHIKV_Mac

>  <tags>  (392) 
['hits', '[Other] Oxyanion site', '[Other] New', '[Other] Phosphate site', '[Other] Adenine site', '[Series] ASAP toolbox']

>  <reference>  (392) 
None

>  <exports>  (392) 
['/opt/xchem-fragalysis-2/maxwin/CHIKV_HIPPO/web_resources/hit_poses.sdf', '/opt/xchem-fragalysis-2/maxwin/CHIKV_HIPPO/web/web_resources/hit_poses.sdf', '/opt/xchem-fragalysis-2/maxwin/CHIKV_HIPPO/web2/web_resources/hit_poses.sdf']

>  <observation_longname>  (392) 
nan

>  <ConformerSites alias>  (392) 
nan

>  <CanonSites alias>  (392) 
nan

>  <CrystalformSites alias>  (392) 
nan

>  <Quatassemblies alias>  (392) 
nan

>  <Crystalforms alias>  (392) 
nan

$$$$
c2183d
     RDKit          3D

 27 30  0  0  0  0  0  0  0  0999 V2000
   14.2250    8.3630   13.9430 O   0  0  0  0  0  0  0  0  0  0  0  0
   14.3150    8.0760   12.7530 C   0  0  0  0  0  0  0  0  0  0  0  0
   14.5390    9.1380   11.6950 C   0  0  0  0  0  0  0  0  0  0  0  0
   14.4820   10.5190   11.9850 C   0  0  0  0  0  0  0  0  0  0  0  0
   14.2520   11.3600   13.1190 C   0  0  0  0  0  0  0  0  0  0  0  0
   14.2440   12.6410   12.6590 C   0  0  0  0  0  0  0  0  0  0  0  0
   14.4600   12.6640   11.2980 N   0  0  0  0  0  0  0  0  0  0  0  0
   14.6290   11.3710   10.8750 C   0  0  0  0  0  0  0  0  0  0  0  0
   14.8650   10.9790    9.6100 N   0  0  0  0  0  0  0  0  0  0  0  0
   14.8980    9.6490    9.4850 C   0  0  0  0  0  0  0  0  0  0  0  0
   14.7390    8.7150   10.4320 N   0  0  0  0  0  0  0  0  0  0  0  0
   14.1430    6.8240   12.3030 N   0  0  0  0  0  0  0  0  0  0  0  0
   13.7840    5.7300   13.2050 C   0  0  2  0  0  0  0  0  0  0  0  0
   14.3310    4.3950   12.6500 C   0  0  0  0  0  0  0  0  0  0  0  0
   15.7970    4.4370   12.3550 C   0  0  0  0  0  0  0  0  0  0  0  0
   16.7690    4.2720   13.2520 N   0  0  0  0  0  0  0  0  0  0  0  0
   17.9660    4.3810   12.6360 N   0  0  0  0  0  0  0  0  0  0  0  0
   17.7080    4.6150   11.3900 N   0  0  0  0  0  0  0  0  0  0  0  0
   16.3650    4.6570   11.1770 N   0  0  0  0  0  0  0  0  0  0  0  0
   12.3000    5.6690   13.5280 C   0  0  0  0  0  0  0  0  0  0  0  0
   11.8950    5.6270   14.8510 C   0  0  0  0  0  0  0  0  0  0  0  0
   10.5710    5.4210   15.1890 C   0  0  0  0  0  0  0  0  0  0  0  0
   11.3320    5.5400   12.5380 C   0  0  0  0  0  0  0  0  0  0  0  0
    9.9990    5.3370   12.8590 C   0  0  0  0  0  0  0  0  0  0  0  0
    9.6210    5.2560   14.1920 C   0  0  0  0  0  0  0  0  0  0  0  0
    8.3260    4.9140   14.5210 O   0  0  0  0  0  0  0  0  0  0  0  0
    7.9770    4.8120   15.8980 C   0  0  0  0  0  0  0  0  0  0  0  0
 27 26  1  0
 26 25  1  0
 25 22  1  0
 22 21  2  0
 21 20  1  0
 20 13  1  0
 13 14  1  6
 15 14  1  0
 15 19  2  0
 19 18  1  0
 18 17  2  0
 17 16  1  0
 16 15  1  0
 13 12  1  0
 12  2  1  0
  2  1  2  0
  3  2  1  0
  3 11  1  0
 11 10  2  0
 10  9  1  0
  9  8  2  0
  8  7  1  0
  7  6  1  0
  6  5  2  0
  5  4  1  0
  4  3  2  0
  8  4  1  0
 23 20  2  0
 24 23  1  0
 25 24  2  0
M  END
>  <id>  (393) 
6181

>  <inchikey>  (393) 
DMABAHOUGOIDPW-CYBMUJFWSA-N

>  <alias>  (393) 
c2183d

>  <smiles>  (393) 
COc1ccc([C@@H](Cc2nnn[nH]2)NC(=O)c2ncnc3[nH]ccc23)cc1

>  <path>  (393) 
/opt/xchem-fragalysis-2/maxwin/CHIKV_Mac_20240920/aligned_files/c2183d/c2183d_hippo.pdb

>  <compound>  (393) 
DMABAHOUGOIDPW-UHFFFAOYSA-N

>  <target>  (393) 
CHIKV_Mac

>  <tags>  (393) 
['hits', '[Other] Oxyanion site', '[Other] New', '[Other] Phosphate site', '[Other] Adenine site', '[Series] ASAP toolbox']

>  <reference>  (393) 
None

>  <exports>  (393) 
['/opt/xchem-fragalysis-2/maxwin/CHIKV_HIPPO/web_resources/hit_poses.sdf', '/opt/xchem-fragalysis-2/maxwin/CHIKV_HIPPO/web/web_resources/hit_poses.sdf', '/opt/xchem-fragalysis-2/maxwin/CHIKV_HIPPO/web2/web_resources/hit_poses.sdf']

>  <observation_longname>  (393) 
nan

>  <ConformerSites alias>  (393) 
nan

>  <CanonSites alias>  (393) 
nan

>  <CrystalformSites alias>  (393) 
nan

>  <Quatassemblies alias>  (393) 
nan

>  <Crystalforms alias>  (393) 
nan

$$$$
c2344a
     RDKit          3D

 21 23  0  0  0  0  0  0  0  0999 V2000
   18.4780    3.2730   14.0780 O   0  0  0  0  0  0  0  0  0  0  0  0
   18.3890    2.3710   14.9040 C   0  0  0  0  0  0  0  0  0  0  0  0
   19.4940    1.8010   15.6150 C   0  0  0  0  0  0  0  0  0  0  0  0
   19.3130    0.8240   16.5370 C   0  0  0  0  0  0  0  0  0  0  0  0
   18.0250    0.3450   16.8200 C   0  0  0  0  0  0  0  0  0  0  0  0
   16.9700    0.8630   16.1600 C   0  0  0  0  0  0  0  0  0  0  0  0
   17.1360    1.8440   15.2190 N   0  0  0  0  0  0  0  0  0  0  0  0
   15.9790    2.3290   14.4750 C   0  0  0  0  0  0  0  0  0  0  0  0
   15.4230    3.5970   15.0340 C   0  0  0  0  0  0  0  0  0  0  0  0
   14.6030    4.3620   14.2520 N   0  0  0  0  0  0  0  0  0  0  0  0
   15.6440    4.0740   16.2200 N   0  0  0  0  0  0  0  0  0  0  0  0
   14.9000    5.2790   16.2250 O   0  0  0  0  0  0  0  0  0  0  0  0
   14.3250    5.3570   15.0200 C   0  0  0  0  0  0  0  0  0  0  0  0
   13.4740    6.5400   14.7020 C   0  0  0  0  0  0  0  0  0  0  0  0
   14.0140    7.3510   13.5450 C   0  0  0  0  0  0  0  0  0  0  0  0
   14.2370    6.7650   12.3080 C   0  0  0  0  0  0  0  0  0  0  0  0
   14.7290    7.5010   11.2450 C   0  0  0  0  0  0  0  0  0  0  0  0
   14.3000    8.6990   13.6960 C   0  0  0  0  0  0  0  0  0  0  0  0
   14.7920    9.4490   12.6440 C   0  0  0  0  0  0  0  0  0  0  0  0
   15.0020    8.8440   11.4200 C   0  0  0  0  0  0  0  0  0  0  0  0
   15.7200    9.9820    9.8080 I   0  0  0  0  0  0  0  0  0  0  0  0
 21 20  1  0
 20 17  1  0
 17 16  2  0
 16 15  1  0
 15 14  1  0
 14 13  1  0
 13 10  2  0
 10  9  1  0
  9  8  1  0
  8  7  1  0
  7  6  1  0
  6  5  2  0
  5  4  1  0
  4  3  2  0
  3  2  1  0
  7  2  1  0
  2  1  2  0
 11  9  2  0
 12 11  1  0
 13 12  1  0
 18 15  2  0
 19 18  1  0
 20 19  2  0
M  END
>  <id>  (394) 
6182

>  <inchikey>  (394) 
FNZVWTMSQIJAJD-UHFFFAOYSA-N

>  <alias>  (394) 
c2344a

>  <smiles>  (394) 
O=c1ccccn1Cc1noc(Cc2ccc(I)cc2)n1

>  <path>  (394) 
/opt/xchem-fragalysis-2/maxwin/CHIKV_Mac_20240920/aligned_files/c2344a/c2344a.pdb

>  <compound>  (394) 
FNZVWTMSQIJAJD-UHFFFAOYSA-N

>  <target>  (394) 
CHIKV_Mac

>  <tags>  (394) 
['[Other] New', 'hits', '[Series] catalogue compound']

>  <reference>  (394) 
None

>  <exports>  (394) 
['/opt/xchem-fragalysis-2/maxwin/CHIKV_HIPPO/web_resources/hit_poses.sdf', '/opt/xchem-fragalysis-2/maxwin/CHIKV_HIPPO/web/web_resources/hit_poses.sdf', '/opt/xchem-fragalysis-2/maxwin/CHIKV_HIPPO/web2/web_resources/hit_poses.sdf']

>  <observation_longname>  (394) 
nan

>  <ConformerSites alias>  (394) 
nan

>  <CanonSites alias>  (394) 
nan

>  <CrystalformSites alias>  (394) 
nan

>  <Quatassemblies alias>  (394) 
nan

>  <Crystalforms alias>  (394) 
nan

$$$$
c2346a
     RDKit          3D

 22 24  0  0  0  0  0  0  0  0999 V2000
    8.8210   10.6990   11.3620 Br  0  0  0  0  0  0  0  0  0  0  0  0
   10.6560   10.2080   11.3510 C   0  0  0  0  0  0  0  0  0  0  0  0
   11.6110   11.1550   11.6490 C   0  0  0  0  0  0  0  0  0  0  0  0
   12.9470   10.7960   11.6150 C   0  0  0  0  0  0  0  0  0  0  0  0
   11.0080    8.9150   11.0340 C   0  0  0  0  0  0  0  0  0  0  0  0
   12.3490    8.5730   11.0020 C   0  0  0  0  0  0  0  0  0  0  0  0
   13.3350    9.5060   11.2830 C   0  0  0  0  0  0  0  0  0  0  0  0
   14.8110    9.1480   11.1660 C   0  0  2  0  0  0  0  0  0  0  0  0
   15.2950    9.2480    9.7250 C   0  0  0  0  0  0  0  0  0  0  0  0
   15.0480    7.7690   11.6750 C   0  0  0  0  0  0  0  0  0  0  0  0
   15.0970    7.5610   12.9990 O   0  0  0  0  0  0  0  0  0  0  0  0
   15.3710    6.1840   13.1700 N   0  0  0  0  0  0  0  0  0  0  0  0
   15.4460    5.7460   11.9510 C   0  0  0  0  0  0  0  0  0  0  0  0
   15.2550    6.6980   10.9860 N   0  0  0  0  0  0  0  0  0  0  0  0
   15.6970    4.3220   11.5780 C   0  0  0  0  0  0  0  0  0  0  0  0
   16.3830    3.5920   12.6370 N   0  0  0  0  0  0  0  0  0  0  0  0
   17.7760    3.6470   12.6650 C   0  0  0  0  0  0  0  0  0  0  0  0
   18.3730    4.2890   11.8080 O   0  0  0  0  0  0  0  0  0  0  0  0
   18.3990    2.9180   13.7260 C   0  0  0  0  0  0  0  0  0  0  0  0
   17.6680    2.2230   14.6330 C   0  0  0  0  0  0  0  0  0  0  0  0
   16.2680    2.2060   14.5500 C   0  0  0  0  0  0  0  0  0  0  0  0
   15.6590    2.8860   13.5600 C   0  0  0  0  0  0  0  0  0  0  0  0
  8  9  1  6
 10  8  1  0
 10 14  2  0
 14 13  1  0
 15 13  1  0
 16 15  1  0
 16 22  1  0
 22 21  2  0
 21 20  1  0
 20 19  2  0
 19 17  1  0
 17 16  1  0
 18 17  2  0
 13 12  2  0
 12 11  1  0
 11 10  1  0
  8  7  1  0
  7  4  2  0
  4  3  1  0
  3  2  2  0
  2  1  1  0
  5  2  1  0
  6  5  2  0
  7  6  1  0
M  END
>  <id>  (395) 
6183

>  <inchikey>  (395) 
ZJPFAOUKTOHHJM-NSHDSACASA-N

>  <alias>  (395) 
c2346a

>  <smiles>  (395) 
C[C@@H](c1ccc(Br)cc1)c1nc(Cn2ccccc2=O)no1

>  <path>  (395) 
/opt/xchem-fragalysis-2/maxwin/CHIKV_Mac_20240920/aligned_files/c2346a/c2346a.pdb

>  <compound>  (395) 
ZJPFAOUKTOHHJM-UHFFFAOYSA-N

>  <target>  (395) 
CHIKV_Mac

>  <tags>  (395) 
['hits', '[Other] Oxyanion site', '[Other] New', '[Other] Trp148 site', '[Series] catalogue compound']

>  <reference>  (395) 
None

>  <exports>  (395) 
['/opt/xchem-fragalysis-2/maxwin/CHIKV_HIPPO/web_resources/hit_poses.sdf', '/opt/xchem-fragalysis-2/maxwin/CHIKV_HIPPO/web/web_resources/hit_poses.sdf', '/opt/xchem-fragalysis-2/maxwin/CHIKV_HIPPO/web2/web_resources/hit_poses.sdf']

>  <observation_longname>  (395) 
nan

>  <ConformerSites alias>  (395) 
nan

>  <CanonSites alias>  (395) 
nan

>  <CrystalformSites alias>  (395) 
nan

>  <Quatassemblies alias>  (395) 
nan

>  <Crystalforms alias>  (395) 
nan

$$$$
c2350a
     RDKit          3D

 15 16  0  0  0  0  0  0  0  0999 V2000
    5.6680    7.7210   18.8170 O   0  0  0  0  0  0  0  0  0  0  0  0
    5.6700    8.4280   17.5600 S   0  0  0  0  0  0  0  0  0  0  0  0
    5.2430    9.7990   17.5730 O   0  0  0  0  0  0  0  0  0  0  0  0
    4.7920    7.5390   16.3830 C   0  0  0  0  0  0  0  0  0  0  0  0
    5.8270    6.6170   15.7550 C   0  0  0  0  0  0  0  0  0  0  0  0
    7.2710    8.2600   16.7970 C   0  0  0  0  0  0  0  0  0  0  0  0
    7.0440    7.4970   15.4910 C   0  0  1  0  0  0  0  0  0  0  0  0
    8.2090    6.7390   15.0440 N   0  0  0  0  0  0  0  0  0  0  0  0
    9.3160    7.3370   14.5930 C   0  0  0  0  0  0  0  0  0  0  0  0
    9.5820    8.5090   14.8260 O   0  0  0  0  0  0  0  0  0  0  0  0
   10.2370    6.5110   13.7940 C   0  0  0  0  0  0  0  0  0  0  0  0
   11.8940    6.9400   13.9030 S   0  0  0  0  0  0  0  0  0  0  0  0
   12.3380    5.6990   12.8370 C   0  0  0  0  0  0  0  0  0  0  0  0
   11.2730    4.9900   12.4130 C   0  0  0  0  0  0  0  0  0  0  0  0
   10.0430    5.4370   12.9500 C   0  0  0  0  0  0  0  0  0  0  0  0
 10  9  2  0
  9  8  1  0
  7  8  1  1
  7  5  1  0
  5  4  1  0
  4  2  1  0
  3  2  2  0
  2  1  2  0
  6  2  1  0
  7  6  1  0
 11  9  1  0
 11 15  2  0
 15 14  1  0
 14 13  2  0
 13 12  1  0
 12 11  1  0
M  END
>  <id>  (396) 
6184

>  <inchikey>  (396) 
QZITWTJGIMOGOA-ZETCQYMHSA-N

>  <alias>  (396) 
c2350a

>  <smiles>  (396) 
O=C(N[C@H]1CCS(=O)(=O)C1)c1cccs1

>  <path>  (396) 
/opt/xchem-fragalysis-2/maxwin/CHIKV_Mac_20240920/aligned_files/c2350a/c2350a_hippo.pdb

>  <compound>  (396) 
QZITWTJGIMOGOA-UHFFFAOYSA-N

>  <target>  (396) 
CHIKV_Mac

>  <tags>  (396) 
['hits', '[Series] catalogue compound', '[Other] Ribose site', '[Other] Phosphate site']

>  <reference>  (396) 
None

>  <exports>  (396) 
['/opt/xchem-fragalysis-2/maxwin/CHIKV_HIPPO/web_resources/hit_poses.sdf', '/opt/xchem-fragalysis-2/maxwin/CHIKV_HIPPO/web/web_resources/hit_poses.sdf', '/opt/xchem-fragalysis-2/maxwin/CHIKV_HIPPO/web2/web_resources/hit_poses.sdf']

>  <observation_longname>  (396) 
nan

>  <ConformerSites alias>  (396) 
nan

>  <CanonSites alias>  (396) 
nan

>  <CrystalformSites alias>  (396) 
nan

>  <Quatassemblies alias>  (396) 
nan

>  <Crystalforms alias>  (396) 
nan

$$$$
c2350b
     RDKit          3D

 15 16  0  0  0  0  0  0  0  0999 V2000
    5.5530    7.6060   18.7670 O   0  0  0  0  0  0  0  0  0  0  0  0
    5.6860    8.2580   17.4910 S   0  0  0  0  0  0  0  0  0  0  0  0
    5.3480    9.6500   17.4170 O   0  0  0  0  0  0  0  0  0  0  0  0
    4.8270    7.3750   16.2870 C   0  0  0  0  0  0  0  0  0  0  0  0
    5.8830    6.4970   15.6300 C   0  0  0  0  0  0  0  0  0  0  0  0
    7.3190    7.9660   16.8380 C   0  0  0  0  0  0  0  0  0  0  0  0
    7.0960    7.3910   15.4510 C   0  0  1  0  0  0  0  0  0  0  0  0
    8.2550    6.6700   14.9380 N   0  0  0  0  0  0  0  0  0  0  0  0
    9.3520    7.2970   14.5170 C   0  0  0  0  0  0  0  0  0  0  0  0
    9.5500    8.4910   14.7140 O   0  0  0  0  0  0  0  0  0  0  0  0
   10.3340    6.4760   13.7920 C   0  0  0  0  0  0  0  0  0  0  0  0
   11.9890    6.8150   14.0500 S   0  0  0  0  0  0  0  0  0  0  0  0
   12.4620    5.5910   13.0030 C   0  0  0  0  0  0  0  0  0  0  0  0
   11.4080    4.9430   12.4680 C   0  0  0  0  0  0  0  0  0  0  0  0
   10.1650    5.4360   12.9060 C   0  0  0  0  0  0  0  0  0  0  0  0
 10  9  2  0
  9  8  1  0
  7  8  1  1
  7  5  1  0
  5  4  1  0
  4  2  1  0
  3  2  2  0
  2  1  2  0
  6  2  1  0
  7  6  1  0
 11  9  1  0
 11 15  2  0
 15 14  1  0
 14 13  2  0
 13 12  1  0
 12 11  1  0
M  END
>  <id>  (397) 
6185

>  <inchikey>  (397) 
QZITWTJGIMOGOA-ZETCQYMHSA-N

>  <alias>  (397) 
c2350b

>  <smiles>  (397) 
O=C(N[C@H]1CCS(=O)(=O)C1)c1cccs1

>  <path>  (397) 
/opt/xchem-fragalysis-2/maxwin/CHIKV_Mac_20240920/aligned_files/c2350b/c2350b_hippo.pdb

>  <compound>  (397) 
QZITWTJGIMOGOA-UHFFFAOYSA-N

>  <target>  (397) 
CHIKV_Mac

>  <tags>  (397) 
['hits', '[Other] Ribose site', '[Other] New', '[Series] catalogue compound', '[Other] Phosphate site']

>  <reference>  (397) 
None

>  <exports>  (397) 
['/opt/xchem-fragalysis-2/maxwin/CHIKV_HIPPO/web_resources/hit_poses.sdf', '/opt/xchem-fragalysis-2/maxwin/CHIKV_HIPPO/web/web_resources/hit_poses.sdf', '/opt/xchem-fragalysis-2/maxwin/CHIKV_HIPPO/web2/web_resources/hit_poses.sdf']

>  <observation_longname>  (397) 
nan

>  <ConformerSites alias>  (397) 
nan

>  <CanonSites alias>  (397) 
nan

>  <CrystalformSites alias>  (397) 
nan

>  <Quatassemblies alias>  (397) 
nan

>  <Crystalforms alias>  (397) 
nan

$$$$
c2350c
     RDKit          3D

 15 16  0  0  0  0  0  0  0  0999 V2000
    5.6520    7.6680   18.7930 O   0  0  0  0  0  0  0  0  0  0  0  0
    5.7310    8.3240   17.5150 S   0  0  0  0  0  0  0  0  0  0  0  0
    5.2580    9.6780   17.4320 O   0  0  0  0  0  0  0  0  0  0  0  0
    5.0030    7.3770   16.3190 C   0  0  0  0  0  0  0  0  0  0  0  0
    5.9930    6.2470   16.0580 C   0  0  0  0  0  0  0  0  0  0  0  0
    7.3840    8.1840   16.8650 C   0  0  0  0  0  0  0  0  0  0  0  0
    7.4320    6.8230   16.1650 C   0  0  2  0  0  0  0  0  0  0  0  0
    8.1380    6.8070   14.8850 N   0  0  0  0  0  0  0  0  0  0  0  0
    9.3120    7.4290   14.6550 C   0  0  0  0  0  0  0  0  0  0  0  0
    9.5420    8.5900   14.9790 O   0  0  0  0  0  0  0  0  0  0  0  0
   10.3160    6.6590   13.9000 C   0  0  0  0  0  0  0  0  0  0  0  0
   11.9610    7.1640   13.9730 S   0  0  0  0  0  0  0  0  0  0  0  0
   12.4450    5.9000   12.9560 C   0  0  0  0  0  0  0  0  0  0  0  0
   11.4120    5.1220   12.5670 C   0  0  0  0  0  0  0  0  0  0  0  0
   10.1690    5.5400   13.0920 C   0  0  0  0  0  0  0  0  0  0  0  0
 10  9  2  0
  9  8  1  0
  7  8  1  6
  7  5  1  0
  5  4  1  0
  4  2  1  0
  3  2  2  0
  2  1  2  0
  6  2  1  0
  7  6  1  0
 11  9  1  0
 11 15  2  0
 15 14  1  0
 14 13  2  0
 13 12  1  0
 12 11  1  0
M  END
>  <id>  (398) 
6186

>  <inchikey>  (398) 
QZITWTJGIMOGOA-SSDOTTSWSA-N

>  <alias>  (398) 
c2350c

>  <smiles>  (398) 
O=C(N[C@@H]1CCS(=O)(=O)C1)c1cccs1

>  <path>  (398) 
/opt/xchem-fragalysis-2/maxwin/CHIKV_Mac_20240920/aligned_files/c2350c/c2350c_hippo.pdb

>  <compound>  (398) 
QZITWTJGIMOGOA-UHFFFAOYSA-N

>  <target>  (398) 
CHIKV_Mac

>  <tags>  (398) 
['hits', '[Other] Ribose site', '[Other] New', '[Series] catalogue compound', '[Other] Phosphate site']

>  <reference>  (398) 
None

>  <exports>  (398) 
['/opt/xchem-fragalysis-2/maxwin/CHIKV_HIPPO/web_resources/hit_poses.sdf', '/opt/xchem-fragalysis-2/maxwin/CHIKV_HIPPO/web/web_resources/hit_poses.sdf', '/opt/xchem-fragalysis-2/maxwin/CHIKV_HIPPO/web2/web_resources/hit_poses.sdf']

>  <observation_longname>  (398) 
nan

>  <ConformerSites alias>  (398) 
nan

>  <CanonSites alias>  (398) 
nan

>  <CrystalformSites alias>  (398) 
nan

>  <Quatassemblies alias>  (398) 
nan

>  <Crystalforms alias>  (398) 
nan

$$$$
c2352a
     RDKit          3D

 21 23  0  0  0  0  0  0  0  0999 V2000
   21.3890    1.9250   17.1980 N   0  0  0  0  0  0  0  0  0  0  0  0
   20.1600    2.0080   16.6510 C   0  0  0  0  0  0  0  0  0  0  0  0
   18.9950    1.9220   17.4500 C   0  0  0  0  0  0  0  0  0  0  0  0
   17.7630    1.9960   16.8300 C   0  0  0  0  0  0  0  0  0  0  0  0
   20.0800    2.1650   15.3080 N   0  0  0  0  0  0  0  0  0  0  0  0
   18.8600    2.2250   14.7460 C   0  0  0  0  0  0  0  0  0  0  0  0
   17.6720    2.1420   15.4530 C   0  0  0  0  0  0  0  0  0  0  0  0
   16.3390    2.1380   14.7390 C   0  0  0  0  0  0  0  0  0  0  0  0
   15.6430    3.4550   14.7870 C   0  0  0  0  0  0  0  0  0  0  0  0
   14.5610    3.6280   14.0200 O   0  0  0  0  0  0  0  0  0  0  0  0
   14.0580    4.9080   14.3450 N   0  0  0  0  0  0  0  0  0  0  0  0
   15.9120    4.4690   15.5350 N   0  0  0  0  0  0  0  0  0  0  0  0
   14.9050    5.3420   15.2280 C   0  0  0  0  0  0  0  0  0  0  0  0
   14.8250    6.6770   15.8960 C   0  0  0  0  0  0  0  0  0  0  0  0
   15.1550    7.8510   14.9990 C   0  0  0  0  0  0  0  0  0  0  0  0
   15.0840    9.1750   15.4660 C   0  0  0  0  0  0  0  0  0  0  0  0
   14.7780    9.4970   16.9070 C   0  0  0  0  0  0  0  0  0  0  0  0
   15.4950    7.6130   13.6670 C   0  0  0  0  0  0  0  0  0  0  0  0
   15.7380    8.6630   12.7980 C   0  0  0  0  0  0  0  0  0  0  0  0
   15.6550    9.9600   13.2460 C   0  0  0  0  0  0  0  0  0  0  0  0
   15.3310   10.2140   14.5670 C   0  0  0  0  0  0  0  0  0  0  0  0
 17 16  1  0
 16 21  2  0
 21 20  1  0
 20 19  2  0
 19 18  1  0
 18 15  2  0
 16 15  1  0
 15 14  1  0
 14 13  1  0
 13 11  2  0
 11 10  1  0
 10  9  1  0
  9  8  1  0
  8  7  1  0
  7  4  2  0
  4  3  1  0
  3  2  2  0
  2  1  1  0
  5  2  1  0
  6  5  2  0
  7  6  1  0
 12  9  2  0
 13 12  1  0
M  END
>  <id>  (399) 
6187

>  <inchikey>  (399) 
LGBAWSHDCWXQBT-UHFFFAOYSA-N

>  <alias>  (399) 
c2352a

>  <smiles>  (399) 
Cc1ccccc1Cc1noc(Cc2ccc(N)nc2)n1

>  <path>  (399) 
/opt/xchem-fragalysis-2/maxwin/CHIKV_Mac_20240920/aligned_files/c2352a/c2352a.pdb

>  <compound>  (399) 
LGBAWSHDCWXQBT-UHFFFAOYSA-N

>  <target>  (399) 
CHIKV_Mac

>  <tags>  (399) 
['[Other] New', 'hits', '[Other] Trp148 site', '[Series] catalogue compound']

>  <reference>  (399) 
None

>  <exports>  (399) 
['/opt/xchem-fragalysis-2/maxwin/CHIKV_HIPPO/web_resources/hit_poses.sdf', '/opt/xchem-fragalysis-2/maxwin/CHIKV_HIPPO/web/web_resources/hit_poses.sdf', '/opt/xchem-fragalysis-2/maxwin/CHIKV_HIPPO/web2/web_resources/hit_poses.sdf']

>  <observation_longname>  (399) 
CHIKV_MacB-x2352_C_401_1_CHIKV_MacB-x2352+C+401+1

>  <ConformerSites alias>  (399) 
1a - c2352/C/401

>  <CanonSites alias>  (399) 
1 - c2352/C/401/1

>  <CrystalformSites alias>  (399) 
F1a - c0270/A/304

>  <Quatassemblies alias>  (399) 
A1 - monomer

>  <Crystalforms alias>  (399) 
F1 - P31-4fold-NCS

$$$$
c2364a
     RDKit          3D

 15 16  0  0  0  0  0  0  0  0999 V2000
    6.0990    9.4880   17.5160 O   0  0  0  0  0  0  0  0  0  0  0  0
    6.0800    8.4680   16.8180 C   0  0  0  0  0  0  0  0  0  0  0  0
    7.2210    8.0990   16.1240 N   0  0  0  0  0  0  0  0  0  0  0  0
    4.9110    7.6280   16.6940 C   0  0  0  0  0  0  0  0  0  0  0  0
    4.9600    6.5290   15.9310 C   0  0  0  0  0  0  0  0  0  0  0  0
    6.0960    6.1950   15.2710 N   0  0  0  0  0  0  0  0  0  0  0  0
    7.1880    7.0030   15.3920 C   0  0  0  0  0  0  0  0  0  0  0  0
    8.3240    6.6520   14.7050 N   0  0  0  0  0  0  0  0  0  0  0  0
    9.5310    7.3030   14.6590 C   0  0  0  0  0  0  0  0  0  0  0  0
    9.7600    8.3550   15.2510 O   0  0  0  0  0  0  0  0  0  0  0  0
   10.5980    6.6900   13.8180 C   0  0  0  0  0  0  0  0  0  0  0  0
   10.2680    5.3690   12.7570 S   0  0  0  0  0  0  0  0  0  0  0  0
   11.9050    5.3850   12.2650 C   0  0  0  0  0  0  0  0  0  0  0  0
   12.5730    6.3520   12.9130 C   0  0  0  0  0  0  0  0  0  0  0  0
   11.8410    7.1020   13.8020 N   0  0  0  0  0  0  0  0  0  0  0  0
 10  9  2  0
  9  8  1  0
  8  7  1  0
  7  3  2  0
  3  2  1  0
  2  1  2  0
  4  2  1  0
  5  4  2  0
  6  5  1  0
  7  6  1  0
 11  9  1  0
 11 15  2  0
 15 14  1  0
 14 13  2  0
 13 12  1  0
 12 11  1  0
M  END
>  <id>  (400) 
6188

>  <inchikey>  (400) 
KPMWYHPSMHMGDR-UHFFFAOYSA-N

>  <alias>  (400) 
c2364a

>  <smiles>  (400) 
O=C(Nc1nc(=O)cc[nH]1)c1nccs1

>  <path>  (400) 
/opt/xchem-fragalysis-2/maxwin/CHIKV_Mac_20240920/aligned_files/c2364a/c2364a_hippo.pdb

>  <compound>  (400) 
KPMWYHPSMHMGDR-UHFFFAOYSA-N

>  <target>  (400) 
CHIKV_Mac

>  <tags>  (400) 
['hits', '[Series] catalogue compound', '[Other] Ribose site', '[Other] Phosphate site']

>  <reference>  (400) 
None

>  <exports>  (400) 
['/opt/xchem-fragalysis-2/maxwin/CHIKV_HIPPO/web_resources/hit_poses.sdf', '/opt/xchem-fragalysis-2/maxwin/CHIKV_HIPPO/web/web_resources/hit_poses.sdf', '/opt/xchem-fragalysis-2/maxwin/CHIKV_HIPPO/web2/web_resources/hit_poses.sdf']

>  <observation_longname>  (400) 
nan

>  <ConformerSites alias>  (400) 
nan

>  <CanonSites alias>  (400) 
nan

>  <CrystalformSites alias>  (400) 
nan

>  <Quatassemblies alias>  (400) 
nan

>  <Crystalforms alias>  (400) 
nan

$$$$
c2364b
     RDKit          3D

 15 16  0  0  0  0  0  0  0  0999 V2000
    6.1250    9.5130   17.4410 O   0  0  0  0  0  0  0  0  0  0  0  0
    6.0790    8.4870   16.7520 C   0  0  0  0  0  0  0  0  0  0  0  0
    7.2140    8.0680   16.0800 N   0  0  0  0  0  0  0  0  0  0  0  0
    4.8800    7.6890   16.6160 C   0  0  0  0  0  0  0  0  0  0  0  0
    4.8980    6.5840   15.8600 C   0  0  0  0  0  0  0  0  0  0  0  0
    6.0310    6.2040   15.2180 N   0  0  0  0  0  0  0  0  0  0  0  0
    7.1520    6.9690   15.3540 C   0  0  0  0  0  0  0  0  0  0  0  0
    8.2810    6.5700   14.6870 N   0  0  0  0  0  0  0  0  0  0  0  0
    9.5130    7.1760   14.6690 C   0  0  0  0  0  0  0  0  0  0  0  0
    9.7630    8.2150   15.2800 O   0  0  0  0  0  0  0  0  0  0  0  0
   10.5900    6.5460   13.8490 C   0  0  0  0  0  0  0  0  0  0  0  0
   10.3030    5.2100   12.7950 S   0  0  0  0  0  0  0  0  0  0  0  0
   11.9460    5.2400   12.3430 C   0  0  0  0  0  0  0  0  0  0  0  0
   12.5880    6.2210   12.9950 C   0  0  0  0  0  0  0  0  0  0  0  0
   11.8250    6.9750   13.8560 N   0  0  0  0  0  0  0  0  0  0  0  0
 10  9  2  0
  9  8  1  0
  8  7  1  0
  7  3  2  0
  3  2  1  0
  2  1  2  0
  4  2  1  0
  5  4  2  0
  6  5  1  0
  7  6  1  0
 11  9  1  0
 11 15  2  0
 15 14  1  0
 14 13  2  0
 13 12  1  0
 12 11  1  0
M  END
>  <id>  (401) 
6189

>  <inchikey>  (401) 
KPMWYHPSMHMGDR-UHFFFAOYSA-N

>  <alias>  (401) 
c2364b

>  <smiles>  (401) 
O=C(Nc1nc(=O)cc[nH]1)c1nccs1

>  <path>  (401) 
/opt/xchem-fragalysis-2/maxwin/CHIKV_Mac_20240920/aligned_files/c2364b/c2364b_hippo.pdb

>  <compound>  (401) 
KPMWYHPSMHMGDR-UHFFFAOYSA-N

>  <target>  (401) 
CHIKV_Mac

>  <tags>  (401) 
['hits', '[Other] Ribose site', '[Other] New', '[Series] catalogue compound', '[Other] Phosphate site']

>  <reference>  (401) 
None

>  <exports>  (401) 
['/opt/xchem-fragalysis-2/maxwin/CHIKV_HIPPO/web_resources/hit_poses.sdf', '/opt/xchem-fragalysis-2/maxwin/CHIKV_HIPPO/web/web_resources/hit_poses.sdf', '/opt/xchem-fragalysis-2/maxwin/CHIKV_HIPPO/web2/web_resources/hit_poses.sdf']

>  <observation_longname>  (401) 
nan

>  <ConformerSites alias>  (401) 
nan

>  <CanonSites alias>  (401) 
nan

>  <CrystalformSites alias>  (401) 
nan

>  <Quatassemblies alias>  (401) 
nan

>  <Crystalforms alias>  (401) 
nan

$$$$
c2364c
     RDKit          3D

 15 16  0  0  0  0  0  0  0  0999 V2000
    6.1380    9.3620   17.3610 O   0  0  0  0  0  0  0  0  0  0  0  0
    6.1180    8.3590   16.6410 C   0  0  0  0  0  0  0  0  0  0  0  0
    7.2660    7.9880   15.9610 N   0  0  0  0  0  0  0  0  0  0  0  0
    4.9400    7.5340   16.4810 C   0  0  0  0  0  0  0  0  0  0  0  0
    4.9900    6.4480   15.6970 C   0  0  0  0  0  0  0  0  0  0  0  0
    6.1350    6.1150   15.0500 N   0  0  0  0  0  0  0  0  0  0  0  0
    7.2330    6.9080   15.2080 C   0  0  0  0  0  0  0  0  0  0  0  0
    8.3700    6.5680   14.5240 N   0  0  0  0  0  0  0  0  0  0  0  0
    9.5930    7.1860   14.4970 C   0  0  0  0  0  0  0  0  0  0  0  0
    9.8550    8.2050   15.1340 O   0  0  0  0  0  0  0  0  0  0  0  0
   10.6430    6.5650   13.6390 C   0  0  0  0  0  0  0  0  0  0  0  0
   10.2950    5.2410   12.5880 S   0  0  0  0  0  0  0  0  0  0  0  0
   11.9210    5.2540   12.0690 C   0  0  0  0  0  0  0  0  0  0  0  0
   12.6020    6.2200   12.7030 C   0  0  0  0  0  0  0  0  0  0  0  0
   11.8840    6.9740   13.6030 N   0  0  0  0  0  0  0  0  0  0  0  0
 10  9  2  0
  9  8  1  0
  8  7  1  0
  7  3  2  0
  3  2  1  0
  2  1  2  0
  4  2  1  0
  5  4  2  0
  6  5  1  0
  7  6  1  0
 11  9  1  0
 11 15  2  0
 15 14  1  0
 14 13  2  0
 13 12  1  0
 12 11  1  0
M  END
>  <id>  (402) 
6190

>  <inchikey>  (402) 
KPMWYHPSMHMGDR-UHFFFAOYSA-N

>  <alias>  (402) 
c2364c

>  <smiles>  (402) 
O=C(Nc1nc(=O)cc[nH]1)c1nccs1

>  <path>  (402) 
/opt/xchem-fragalysis-2/maxwin/CHIKV_Mac_20240920/aligned_files/c2364c/c2364c_hippo.pdb

>  <compound>  (402) 
KPMWYHPSMHMGDR-UHFFFAOYSA-N

>  <target>  (402) 
CHIKV_Mac

>  <tags>  (402) 
['hits', '[Other] Ribose site', '[Other] New', '[Series] catalogue compound', '[Other] Phosphate site']

>  <reference>  (402) 
None

>  <exports>  (402) 
['/opt/xchem-fragalysis-2/maxwin/CHIKV_HIPPO/web_resources/hit_poses.sdf', '/opt/xchem-fragalysis-2/maxwin/CHIKV_HIPPO/web/web_resources/hit_poses.sdf', '/opt/xchem-fragalysis-2/maxwin/CHIKV_HIPPO/web2/web_resources/hit_poses.sdf']

>  <observation_longname>  (402) 
CHIKV_MacB-x2364_D_401_1_CHIKV_MacB-x2352+C+401+1

>  <ConformerSites alias>  (402) 
1a - c2352/C/401

>  <CanonSites alias>  (402) 
1 - c2352/C/401/1

>  <CrystalformSites alias>  (402) 
F1a - c0270/A/304

>  <Quatassemblies alias>  (402) 
A1 - monomer

>  <Crystalforms alias>  (402) 
F1 - P31-4fold-NCS

$$$$
c2370a
     RDKit          3D

 20 22  0  0  0  0  0  0  0  0999 V2000
   14.6840    1.0560   15.7740 O   0  0  0  0  0  0  0  0  0  0  0  0
   15.9110    1.1030   15.8000 C   0  0  0  0  0  0  0  0  0  0  0  0
   16.6950    0.0590   16.4840 C   0  0  0  0  0  0  0  0  0  0  0  0
   17.9770   -0.4570   16.1300 C   0  0  0  0  0  0  0  0  0  0  0  0
   18.2730   -1.4450   17.0260 C   0  0  0  0  0  0  0  0  0  0  0  0
   17.2420   -1.5520   17.9080 N   0  0  0  0  0  0  0  0  0  0  0  0
   16.2760   -0.6320   17.5950 C   0  0  0  0  0  0  0  0  0  0  0  0
   15.0450   -0.4700   18.4260 C   0  0  0  0  0  0  0  0  0  0  0  0
   16.6130    2.0760   15.2230 N   0  0  0  0  0  0  0  0  0  0  0  0
   15.9960    2.9860   14.2850 C   0  0  0  0  0  0  0  0  0  0  0  0
   15.7010    4.2640   14.9990 C   0  0  0  0  0  0  0  0  0  0  0  0
   15.5450    4.3630   16.7180 S   0  0  0  0  0  0  0  0  0  0  0  0
   15.2150    6.0400   16.5800 C   0  0  0  0  0  0  0  0  0  0  0  0
   15.2500    6.4100   15.2770 C   0  0  0  0  0  0  0  0  0  0  0  0
   15.5270    5.3960   14.3760 N   0  0  0  0  0  0  0  0  0  0  0  0
   15.0350    7.7620   14.7870 C   0  0  0  0  0  0  0  0  0  0  0  0
   14.7660    8.8140   15.5460 N   0  0  0  0  0  0  0  0  0  0  0  0
   14.6890    9.7850   14.6470 N   0  0  0  0  0  0  0  0  0  0  0  0
   14.8910    9.3780   13.4160 N   0  0  0  0  0  0  0  0  0  0  0  0
   15.1140    8.0820   13.4870 N   0  0  0  0  0  0  0  0  0  0  0  0
  8  7  1  0
  7  6  1  0
  6  5  1  0
  5  4  2  0
  4  3  1  0
  7  3  2  0
  3  2  1  0
  2  1  2  0
  9  2  1  0
 10  9  1  0
 11 10  1  0
 11 15  2  0
 15 14  1  0
 14 13  2  0
 13 12  1  0
 12 11  1  0
 16 14  1  0
 16 20  1  0
 20 19  2  0
 19 18  1  0
 18 17  1  0
 17 16  2  0
M  END
>  <id>  (403) 
6191

>  <inchikey>  (403) 
HRUIIOCTLVUJFH-UHFFFAOYSA-N

>  <alias>  (403) 
c2370a

>  <smiles>  (403) 
Cc1[nH]ccc1C(=O)NCc1nc(-c2nn[nH]n2)cs1

>  <path>  (403) 
/opt/xchem-fragalysis-2/maxwin/CHIKV_Mac_20240920/aligned_files/c2370a/c2370a.pdb

>  <compound>  (403) 
HRUIIOCTLVUJFH-UHFFFAOYSA-N

>  <target>  (403) 
CHIKV_Mac

>  <tags>  (403) 
['[Other] New', 'hits', '[Other] Trp148 site', '[Series] catalogue compound']

>  <reference>  (403) 
None

>  <exports>  (403) 
['/opt/xchem-fragalysis-2/maxwin/CHIKV_HIPPO/web_resources/hit_poses.sdf', '/opt/xchem-fragalysis-2/maxwin/CHIKV_HIPPO/web/web_resources/hit_poses.sdf', '/opt/xchem-fragalysis-2/maxwin/CHIKV_HIPPO/web2/web_resources/hit_poses.sdf']

>  <observation_longname>  (403) 
nan

>  <ConformerSites alias>  (403) 
nan

>  <CanonSites alias>  (403) 
nan

>  <CrystalformSites alias>  (403) 
nan

>  <Quatassemblies alias>  (403) 
nan

>  <Crystalforms alias>  (403) 
nan

$$$$
c2431a
     RDKit          3D

 21 23  0  0  0  0  0  0  0  0999 V2000
   18.5740    3.0190   14.3590 O   0  0  0  0  0  0  0  0  0  0  0  0
   18.2860    2.2090   15.2300 C   0  0  0  0  0  0  0  0  0  0  0  0
   19.2280    1.5660   16.0940 C   0  0  0  0  0  0  0  0  0  0  0  0
   18.8300    0.6920   17.0490 C   0  0  0  0  0  0  0  0  0  0  0  0
   17.4700    0.3980   17.2160 C   0  0  0  0  0  0  0  0  0  0  0  0
   16.5650    0.9920   16.4150 C   0  0  0  0  0  0  0  0  0  0  0  0
   16.9530    1.8700   15.4410 N   0  0  0  0  0  0  0  0  0  0  0  0
   15.9560    2.4360   14.5430 C   0  0  0  0  0  0  0  0  0  0  0  0
   15.3900    3.7180   15.0590 C   0  0  0  0  0  0  0  0  0  0  0  0
   14.7090    4.4990   14.1700 N   0  0  0  0  0  0  0  0  0  0  0  0
   15.4320    4.1830   16.2690 N   0  0  0  0  0  0  0  0  0  0  0  0
   14.6960    5.3900   16.1750 O   0  0  0  0  0  0  0  0  0  0  0  0
   14.3080    5.4830   14.8980 C   0  0  0  0  0  0  0  0  0  0  0  0
   13.4490    6.6280   14.4800 C   0  0  0  0  0  0  0  0  0  0  0  0
   14.0110    7.3950   13.3010 C   0  0  0  0  0  0  0  0  0  0  0  0
   14.1300    6.8010   12.0520 C   0  0  0  0  0  0  0  0  0  0  0  0
   14.6140    7.5060   10.9640 C   0  0  0  0  0  0  0  0  0  0  0  0
   14.3960    8.7200   13.4360 C   0  0  0  0  0  0  0  0  0  0  0  0
   14.8840    9.4370   12.3590 C   0  0  0  0  0  0  0  0  0  0  0  0
   14.9810    8.8210   11.1320 C   0  0  0  0  0  0  0  0  0  0  0  0
   15.6010    9.8190    9.6360 Br  0  0  0  0  0  0  0  0  0  0  0  0
 21 20  1  0
 20 17  1  0
 17 16  2  0
 16 15  1  0
 15 14  1  0
 14 13  1  0
 13 10  2  0
 10  9  1  0
  9  8  1  0
  8  7  1  0
  7  6  1  0
  6  5  2  0
  5  4  1  0
  4  3  2  0
  3  2  1  0
  7  2  1  0
  2  1  2  0
 11  9  2  0
 12 11  1  0
 13 12  1  0
 18 15  2  0
 19 18  1  0
 20 19  2  0
M  END
>  <id>  (404) 
6192

>  <inchikey>  (404) 
PXJNDDSPBMJTHG-UHFFFAOYSA-N

>  <alias>  (404) 
c2431a

>  <smiles>  (404) 
O=c1ccccn1Cc1noc(Cc2ccc(Br)cc2)n1

>  <path>  (404) 
/opt/xchem-fragalysis-2/maxwin/CHIKV_Mac_20240920/aligned_files/c2431a/c2431a.pdb

>  <compound>  (404) 
PXJNDDSPBMJTHG-UHFFFAOYSA-N

>  <target>  (404) 
CHIKV_Mac

>  <tags>  (404) 
['[Other] New', 'hits', '[Series] catalogue compound']

>  <reference>  (404) 
None

>  <exports>  (404) 
['/opt/xchem-fragalysis-2/maxwin/CHIKV_HIPPO/web_resources/hit_poses.sdf', '/opt/xchem-fragalysis-2/maxwin/CHIKV_HIPPO/web/web_resources/hit_poses.sdf', '/opt/xchem-fragalysis-2/maxwin/CHIKV_HIPPO/web2/web_resources/hit_poses.sdf']

>  <observation_longname>  (404) 
nan

>  <ConformerSites alias>  (404) 
nan

>  <CanonSites alias>  (404) 
nan

>  <CrystalformSites alias>  (404) 
nan

>  <Quatassemblies alias>  (404) 
nan

>  <Crystalforms alias>  (404) 
nan

$$$$
6w8z-a
     RDKit          3D

 15 16  0  0  0  0  0  0  0  0999 V2000
    6.5400    3.7610   13.4790 N   0  0  0  0  0  0  0  0  0  0  0  0
    5.2840    4.1840   13.2410 C   0  0  0  0  0  0  0  0  0  0  0  0
    7.2720    4.3140   14.4960 C   0  0  0  0  0  0  0  0  0  0  0  0
    8.6820    3.8460   14.7360 C   0  0  0  0  0  0  0  0  0  0  0  0
    5.3630    5.7950   15.0380 C   0  0  0  0  0  0  0  0  0  0  0  0
    6.6610    5.3810   15.3520 C   0  0  0  0  0  0  0  0  0  0  0  0
    4.6980    5.1660   14.0110 N   0  0  0  0  0  0  0  0  0  0  0  0
    7.3690    5.9990   16.3810 C   0  0  0  0  0  0  0  0  0  0  0  0
    6.7570    6.9610   17.1660 C   0  0  0  0  0  0  0  0  0  0  0  0
    5.4770    7.3750   16.8880 C   0  0  0  0  0  0  0  0  0  0  0  0
    4.7820    6.8050   15.8150 C   0  0  0  0  0  0  0  0  0  0  0  0
    9.5250    4.9390   12.5170 C   0  0  0  0  0  0  0  0  0  0  0  0
    4.6910    3.6400   12.2830 O   0  0  0  0  0  0  0  0  0  0  0  0
    8.9390    3.1980   15.7520 O   0  0  0  0  0  0  0  0  0  0  0  0
    9.7270    4.1790   13.7600 O   0  0  0  0  0  0  0  0  0  0  0  0
 13  2  2  0
 12 15  1  0
  2  1  1  0
  2  7  1  0
  1  3  2  0
 15  4  1  0
  7  5  1  0
  3  4  1  0
  3  6  1  0
  4 14  2  0
  5  6  2  0
  5 11  1  0
  6  8  1  0
 11 10  2  0
  8  9  2  0
 10  9  1  0
M  END
>  <id>  (405) 
6193

>  <inchikey>  (405) 
LUWXFZYTFMIZSY-UHFFFAOYSA-N

>  <alias>  (405) 
6w8z-a

>  <smiles>  (405) 
COC(=O)c1nc(=O)[nH]c2ccccc12

>  <path>  (405) 
/opt/xchem-fragalysis-2/maxwin/CHIKV_Mac_20240920/aligned_files/6w8z-a/6w8z-a_hippo.pdb

>  <compound>  (405) 
LUWXFZYTFMIZSY-UHFFFAOYSA-N

>  <target>  (405) 
CHIKV_Mac

>  <tags>  (405) 
['hits', '[Other] external', '[Other] Ribose site', '[Other] Phosphate site']

>  <reference>  (405) 
None

>  <exports>  (405) 
['/opt/xchem-fragalysis-2/maxwin/CHIKV_HIPPO/web_resources/hit_poses.sdf', '/opt/xchem-fragalysis-2/maxwin/CHIKV_HIPPO/web/web_resources/hit_poses.sdf', '/opt/xchem-fragalysis-2/maxwin/CHIKV_HIPPO/web2/web_resources/hit_poses.sdf']

>  <observation_longname>  (405) 
nan

>  <ConformerSites alias>  (405) 
nan

>  <CanonSites alias>  (405) 
nan

>  <CrystalformSites alias>  (405) 
nan

>  <Quatassemblies alias>  (405) 
nan

>  <Crystalforms alias>  (405) 
nan

$$$$
6w8z-b
     RDKit          3D

 15 16  0  0  0  0  0  0  0  0999 V2000
    6.2900    3.6740   13.0000 N   0  0  0  0  0  0  0  0  0  0  0  0
    4.9690    4.1140   12.9810 C   0  0  0  0  0  0  0  0  0  0  0  0
    7.1470    4.3310   13.8960 C   0  0  0  0  0  0  0  0  0  0  0  0
    8.6010    3.9910   14.0680 C   0  0  0  0  0  0  0  0  0  0  0  0
    5.2730    5.7800   14.7030 C   0  0  0  0  0  0  0  0  0  0  0  0
    6.6300    5.4370   14.8160 C   0  0  0  0  0  0  0  0  0  0  0  0
    4.5040    5.1170   13.7940 N   0  0  0  0  0  0  0  0  0  0  0  0
    7.4280    6.1370   15.7440 C   0  0  0  0  0  0  0  0  0  0  0  0
    6.8690    7.1440   16.5370 C   0  0  0  0  0  0  0  0  0  0  0  0
    5.5180    7.4780   16.4250 C   0  0  0  0  0  0  0  0  0  0  0  0
    4.7180    6.7980   15.5070 C   0  0  0  0  0  0  0  0  0  0  0  0
    9.6360    4.9870   11.9310 C   0  0  0  0  0  0  0  0  0  0  0  0
    4.0990    3.6580   12.2010 O   0  0  0  0  0  0  0  0  0  0  0  0
    8.9350    3.7260   15.2240 O   0  0  0  0  0  0  0  0  0  0  0  0
    9.5790    3.9750   12.9640 O   0  0  0  0  0  0  0  0  0  0  0  0
 13  2  2  0
 12 15  1  0
  2  1  1  0
  2  7  1  0
  1  3  2  0
 15  4  1  0
  7  5  1  0
  3  4  1  0
  3  6  1  0
  4 14  2  0
  5  6  2  0
  5 11  1  0
  6  8  1  0
 11 10  2  0
  8  9  2  0
 10  9  1  0
M  END
>  <id>  (406) 
6194

>  <inchikey>  (406) 
LUWXFZYTFMIZSY-UHFFFAOYSA-N

>  <alias>  (406) 
6w8z-b

>  <smiles>  (406) 
COC(=O)c1nc(=O)[nH]c2ccccc12

>  <path>  (406) 
/opt/xchem-fragalysis-2/maxwin/CHIKV_Mac_20240920/aligned_files/6w8z-b/6w8z-b_hippo.pdb

>  <compound>  (406) 
LUWXFZYTFMIZSY-UHFFFAOYSA-N

>  <target>  (406) 
CHIKV_Mac

>  <tags>  (406) 
['[Other] New', 'hits', '[Other] Ribose site', '[Other] Phosphate site']

>  <reference>  (406) 
None

>  <exports>  (406) 
['/opt/xchem-fragalysis-2/maxwin/CHIKV_HIPPO/web_resources/hit_poses.sdf', '/opt/xchem-fragalysis-2/maxwin/CHIKV_HIPPO/web/web_resources/hit_poses.sdf', '/opt/xchem-fragalysis-2/maxwin/CHIKV_HIPPO/web2/web_resources/hit_poses.sdf']

>  <observation_longname>  (406) 
nan

>  <ConformerSites alias>  (406) 
nan

>  <CanonSites alias>  (406) 
nan

>  <CrystalformSites alias>  (406) 
nan

>  <Quatassemblies alias>  (406) 
nan

>  <Crystalforms alias>  (406) 
nan

$$$$
6w8z-c
     RDKit          3D

 15 16  0  0  0  0  0  0  0  0999 V2000
    6.2400    3.5580   13.2910 N   0  0  0  0  0  0  0  0  0  0  0  0
    4.9410    3.8790   13.1250 C   0  0  0  0  0  0  0  0  0  0  0  0
    6.9630    4.2030   14.3110 C   0  0  0  0  0  0  0  0  0  0  0  0
    8.4050    3.8280   14.5690 C   0  0  0  0  0  0  0  0  0  0  0  0
    4.9690    5.5110   14.9260 C   0  0  0  0  0  0  0  0  0  0  0  0
    6.3260    5.2590   15.1710 C   0  0  0  0  0  0  0  0  0  0  0  0
    4.3590    4.8460   13.9120 N   0  0  0  0  0  0  0  0  0  0  0  0
    6.9630    5.9110   16.2170 C   0  0  0  0  0  0  0  0  0  0  0  0
    6.2820    6.8490   16.9800 C   0  0  0  0  0  0  0  0  0  0  0  0
    4.9410    7.1300   16.7140 C   0  0  0  0  0  0  0  0  0  0  0  0
    4.2790    6.4540   15.7020 C   0  0  0  0  0  0  0  0  0  0  0  0
    9.1430    4.7650   12.2920 C   0  0  0  0  0  0  0  0  0  0  0  0
    4.2580    3.3200   12.2140 O   0  0  0  0  0  0  0  0  0  0  0  0
    8.7410    3.3280   15.6600 O   0  0  0  0  0  0  0  0  0  0  0  0
    9.3560    3.9660   13.5080 O   0  0  0  0  0  0  0  0  0  0  0  0
 13  2  2  0
 12 15  1  0
  2  1  1  0
  2  7  1  0
  1  3  2  0
 15  4  1  0
  7  5  1  0
  3  4  1  0
  3  6  1  0
  4 14  2  0
  5  6  2  0
  5 11  1  0
  6  8  1  0
 11 10  2  0
  8  9  2  0
 10  9  1  0
M  END
>  <id>  (407) 
6195

>  <inchikey>  (407) 
LUWXFZYTFMIZSY-UHFFFAOYSA-N

>  <alias>  (407) 
6w8z-c

>  <smiles>  (407) 
COC(=O)c1nc(=O)[nH]c2ccccc12

>  <path>  (407) 
/opt/xchem-fragalysis-2/maxwin/CHIKV_Mac_20240920/aligned_files/6w8z-c/6w8z-c_hippo.pdb

>  <compound>  (407) 
LUWXFZYTFMIZSY-UHFFFAOYSA-N

>  <target>  (407) 
CHIKV_Mac

>  <tags>  (407) 
['[Other] New', 'hits', '[Other] Ribose site', '[Other] Phosphate site']

>  <reference>  (407) 
None

>  <exports>  (407) 
['/opt/xchem-fragalysis-2/maxwin/CHIKV_HIPPO/web_resources/hit_poses.sdf', '/opt/xchem-fragalysis-2/maxwin/CHIKV_HIPPO/web/web_resources/hit_poses.sdf', '/opt/xchem-fragalysis-2/maxwin/CHIKV_HIPPO/web2/web_resources/hit_poses.sdf']

>  <observation_longname>  (407) 
nan

>  <ConformerSites alias>  (407) 
nan

>  <CanonSites alias>  (407) 
nan

>  <CrystalformSites alias>  (407) 
nan

>  <Quatassemblies alias>  (407) 
nan

>  <Crystalforms alias>  (407) 
nan

$$$$
6w8z-d
     RDKit          3D

 15 16  0  0  0  0  0  0  0  0999 V2000
    6.6130    4.1820   13.5360 N   0  0  0  0  0  0  0  0  0  0  0  0
    5.3490    4.5780   13.3320 C   0  0  0  0  0  0  0  0  0  0  0  0
    7.3270    4.7260   14.5920 C   0  0  0  0  0  0  0  0  0  0  0  0
    8.7120    4.2340   14.8650 C   0  0  0  0  0  0  0  0  0  0  0  0
    5.3770    6.1610   15.1260 C   0  0  0  0  0  0  0  0  0  0  0  0
    6.6950    5.7820   15.4470 C   0  0  0  0  0  0  0  0  0  0  0  0
    4.7440    5.5360   14.0830 N   0  0  0  0  0  0  0  0  0  0  0  0
    7.3470    6.3980   16.5060 C   0  0  0  0  0  0  0  0  0  0  0  0
    6.6720    7.3750   17.2520 C   0  0  0  0  0  0  0  0  0  0  0  0
    5.3590    7.7670   16.9490 C   0  0  0  0  0  0  0  0  0  0  0  0
    4.7190    7.1590   15.8730 C   0  0  0  0  0  0  0  0  0  0  0  0
    9.9740    5.4820   13.0260 C   0  0  0  0  0  0  0  0  0  0  0  0
    4.7550    4.0500   12.3680 O   0  0  0  0  0  0  0  0  0  0  0  0
    8.8770    3.6440   15.9270 O   0  0  0  0  0  0  0  0  0  0  0  0
    9.8360    4.3620   13.9200 O   0  0  0  0  0  0  0  0  0  0  0  0
 13  2  2  0
 12 15  1  0
  2  1  1  0
  2  7  1  0
  1  3  2  0
 15  4  1  0
  7  5  1  0
  3  4  1  0
  3  6  1  0
  4 14  2  0
  5  6  2  0
  5 11  1  0
  6  8  1  0
 11 10  2  0
  8  9  2  0
 10  9  1  0
M  END
>  <id>  (408) 
6196

>  <inchikey>  (408) 
LUWXFZYTFMIZSY-UHFFFAOYSA-N

>  <alias>  (408) 
6w8z-d

>  <smiles>  (408) 
COC(=O)c1nc(=O)[nH]c2ccccc12

>  <path>  (408) 
/opt/xchem-fragalysis-2/maxwin/CHIKV_Mac_20240920/aligned_files/6w8z-d/6w8z-d_hippo.pdb

>  <compound>  (408) 
LUWXFZYTFMIZSY-UHFFFAOYSA-N

>  <target>  (408) 
CHIKV_Mac

>  <tags>  (408) 
['[Other] New', 'hits', '[Other] Ribose site', '[Other] Phosphate site']

>  <reference>  (408) 
None

>  <exports>  (408) 
['/opt/xchem-fragalysis-2/maxwin/CHIKV_HIPPO/web_resources/hit_poses.sdf', '/opt/xchem-fragalysis-2/maxwin/CHIKV_HIPPO/web/web_resources/hit_poses.sdf', '/opt/xchem-fragalysis-2/maxwin/CHIKV_HIPPO/web2/web_resources/hit_poses.sdf']

>  <observation_longname>  (408) 
nan

>  <ConformerSites alias>  (408) 
nan

>  <CanonSites alias>  (408) 
nan

>  <CrystalformSites alias>  (408) 
nan

>  <Quatassemblies alias>  (408) 
nan

>  <Crystalforms alias>  (408) 
nan

$$$$
6w91-a
     RDKit          3D

 11 11  0  0  0  0  0  0  0  0999 V2000
    4.5730    3.8800   12.2470 O   0  0  0  0  0  0  0  0  0  0  0  0
    8.8180    3.4720   15.7170 O   0  0  0  0  0  0  0  0  0  0  0  0
    6.4960    3.9730   13.4250 N   0  0  0  0  0  0  0  0  0  0  0  0
    5.2380    4.4190   13.1700 C   0  0  0  0  0  0  0  0  0  0  0  0
    9.6910    4.3340   13.7740 O   0  0  0  0  0  0  0  0  0  0  0  0
    7.2040    4.5600   14.4310 C   0  0  0  0  0  0  0  0  0  0  0  0
    8.5920    4.0840   14.7050 C   0  0  0  0  0  0  0  0  0  0  0  0
    5.3660    6.0350   14.9070 C   0  0  0  0  0  0  0  0  0  0  0  0
    6.6560    5.6020   15.2080 C   0  0  0  0  0  0  0  0  0  0  0  0
    4.6850    5.4230   13.9120 N   0  0  0  0  0  0  0  0  0  0  0  0
    9.5040    5.0000   12.5110 C   0  0  0  0  0  0  0  0  0  0  0  0
  1  4  2  0
 11  5  1  0
  4  3  1  0
  4 10  1  0
  3  6  1  0
  5  7  1  0
 10  8  2  0
  6  7  1  0
  6  9  2  0
  7  2  2  0
  8  9  1  0
M  END
>  <id>  (409) 
6197

>  <inchikey>  (409) 
BJFHABUKRPPLGH-UHFFFAOYSA-N

>  <alias>  (409) 
6w91-a

>  <smiles>  (409) 
COC(=O)c1ccnc(=O)[nH]1

>  <path>  (409) 
/opt/xchem-fragalysis-2/maxwin/CHIKV_Mac_20240920/aligned_files/6w91-a/6w91-a_hippo.pdb

>  <compound>  (409) 
BJFHABUKRPPLGH-UHFFFAOYSA-N

>  <target>  (409) 
CHIKV_Mac

>  <tags>  (409) 
['hits', '[Other] external', '[Other] Ribose site', '[Other] Phosphate site']

>  <reference>  (409) 
None

>  <exports>  (409) 
['/opt/xchem-fragalysis-2/maxwin/CHIKV_HIPPO/web_resources/hit_poses.sdf', '/opt/xchem-fragalysis-2/maxwin/CHIKV_HIPPO/web/web_resources/hit_poses.sdf', '/opt/xchem-fragalysis-2/maxwin/CHIKV_HIPPO/web2/web_resources/hit_poses.sdf']

>  <observation_longname>  (409) 
nan

>  <ConformerSites alias>  (409) 
nan

>  <CanonSites alias>  (409) 
nan

>  <CrystalformSites alias>  (409) 
nan

>  <Quatassemblies alias>  (409) 
nan

>  <Crystalforms alias>  (409) 
nan

$$$$
6w91-b
     RDKit          3D

 11 11  0  0  0  0  0  0  0  0999 V2000
    4.6970    3.6170   11.7100 O   0  0  0  0  0  0  0  0  0  0  0  0
    8.4380    4.0600   15.9020 O   0  0  0  0  0  0  0  0  0  0  0  0
    6.4130    3.8950   13.1350 N   0  0  0  0  0  0  0  0  0  0  0  0
    5.1770    4.2300   12.6800 C   0  0  0  0  0  0  0  0  0  0  0  0
    9.3680    3.9740   13.8200 O   0  0  0  0  0  0  0  0  0  0  0  0
    6.9270    4.5670   14.2000 C   0  0  0  0  0  0  0  0  0  0  0  0
    8.2720    4.1970   14.7200 C   0  0  0  0  0  0  0  0  0  0  0  0
    4.9380    5.9310   14.2910 C   0  0  0  0  0  0  0  0  0  0  0  0
    6.2060    5.6120   14.8030 C   0  0  0  0  0  0  0  0  0  0  0  0
    4.4550    5.2320   13.2360 N   0  0  0  0  0  0  0  0  0  0  0  0
    9.4830    4.6640   12.5610 C   0  0  0  0  0  0  0  0  0  0  0  0
  1  4  2  0
 11  5  1  0
  4  3  1  0
  4 10  1  0
  3  6  1  0
  5  7  1  0
 10  8  2  0
  6  7  1  0
  6  9  2  0
  7  2  2  0
  8  9  1  0
M  END
>  <id>  (410) 
6198

>  <inchikey>  (410) 
BJFHABUKRPPLGH-UHFFFAOYSA-N

>  <alias>  (410) 
6w91-b

>  <smiles>  (410) 
COC(=O)c1ccnc(=O)[nH]1

>  <path>  (410) 
/opt/xchem-fragalysis-2/maxwin/CHIKV_Mac_20240920/aligned_files/6w91-b/6w91-b_hippo.pdb

>  <compound>  (410) 
BJFHABUKRPPLGH-UHFFFAOYSA-N

>  <target>  (410) 
CHIKV_Mac

>  <tags>  (410) 
['[Other] New', 'hits', '[Other] Ribose site', '[Other] Phosphate site']

>  <reference>  (410) 
None

>  <exports>  (410) 
['/opt/xchem-fragalysis-2/maxwin/CHIKV_HIPPO/web_resources/hit_poses.sdf', '/opt/xchem-fragalysis-2/maxwin/CHIKV_HIPPO/web/web_resources/hit_poses.sdf', '/opt/xchem-fragalysis-2/maxwin/CHIKV_HIPPO/web2/web_resources/hit_poses.sdf']

>  <observation_longname>  (410) 
nan

>  <ConformerSites alias>  (410) 
nan

>  <CanonSites alias>  (410) 
nan

>  <CrystalformSites alias>  (410) 
nan

>  <Quatassemblies alias>  (410) 
nan

>  <Crystalforms alias>  (410) 
nan

$$$$
6w91-c
     RDKit          3D

 11 11  0  0  0  0  0  0  0  0999 V2000
    4.4570    3.7530   12.1600 O   0  0  0  0  0  0  0  0  0  0  0  0
    8.6120    3.4330   15.7730 O   0  0  0  0  0  0  0  0  0  0  0  0
    6.3080    3.9160   13.4140 N   0  0  0  0  0  0  0  0  0  0  0  0
    5.0460    4.2890   13.1350 C   0  0  0  0  0  0  0  0  0  0  0  0
    9.4830    4.3510   13.8620 O   0  0  0  0  0  0  0  0  0  0  0  0
    6.9650    4.5070   14.4670 C   0  0  0  0  0  0  0  0  0  0  0  0
    8.3730    4.0680   14.7660 C   0  0  0  0  0  0  0  0  0  0  0  0
    5.0390    5.8440   14.9480 C   0  0  0  0  0  0  0  0  0  0  0  0
    6.3490    5.4860   15.2610 C   0  0  0  0  0  0  0  0  0  0  0  0
    4.4230    5.2340   13.8980 N   0  0  0  0  0  0  0  0  0  0  0  0
    9.3870    4.9750   12.5610 C   0  0  0  0  0  0  0  0  0  0  0  0
  1  4  2  0
 11  5  1  0
  4  3  1  0
  4 10  1  0
  3  6  1  0
  5  7  1  0
 10  8  2  0
  6  7  1  0
  6  9  2  0
  7  2  2  0
  8  9  1  0
M  END
>  <id>  (411) 
6199

>  <inchikey>  (411) 
BJFHABUKRPPLGH-UHFFFAOYSA-N

>  <alias>  (411) 
6w91-c

>  <smiles>  (411) 
COC(=O)c1ccnc(=O)[nH]1

>  <path>  (411) 
/opt/xchem-fragalysis-2/maxwin/CHIKV_Mac_20240920/aligned_files/6w91-c/6w91-c_hippo.pdb

>  <compound>  (411) 
BJFHABUKRPPLGH-UHFFFAOYSA-N

>  <target>  (411) 
CHIKV_Mac

>  <tags>  (411) 
['[Other] New', 'hits', '[Other] Ribose site', '[Other] Phosphate site']

>  <reference>  (411) 
None

>  <exports>  (411) 
['/opt/xchem-fragalysis-2/maxwin/CHIKV_HIPPO/web_resources/hit_poses.sdf', '/opt/xchem-fragalysis-2/maxwin/CHIKV_HIPPO/web/web_resources/hit_poses.sdf', '/opt/xchem-fragalysis-2/maxwin/CHIKV_HIPPO/web2/web_resources/hit_poses.sdf']

>  <observation_longname>  (411) 
nan

>  <ConformerSites alias>  (411) 
nan

>  <CanonSites alias>  (411) 
nan

>  <CrystalformSites alias>  (411) 
nan

>  <Quatassemblies alias>  (411) 
nan

>  <Crystalforms alias>  (411) 
nan

$$$$
6w91-d
     RDKit          3D

 11 11  0  0  0  0  0  0  0  0999 V2000
    4.7790    4.1270   12.3060 O   0  0  0  0  0  0  0  0  0  0  0  0
    8.7910    3.4550   15.8330 O   0  0  0  0  0  0  0  0  0  0  0  0
    6.6160    4.1970   13.5580 N   0  0  0  0  0  0  0  0  0  0  0  0
    5.3460    4.5870   13.2990 C   0  0  0  0  0  0  0  0  0  0  0  0
    9.8330    4.8930   14.3510 O   0  0  0  0  0  0  0  0  0  0  0  0
    7.2380    4.7260   14.6590 C   0  0  0  0  0  0  0  0  0  0  0  0
    8.6400    4.3130   14.9930 C   0  0  0  0  0  0  0  0  0  0  0  0
    5.2650    6.0190   15.1670 C   0  0  0  0  0  0  0  0  0  0  0  0
    6.5720    5.6450   15.4880 C   0  0  0  0  0  0  0  0  0  0  0  0
    4.6830    5.4690   14.0680 N   0  0  0  0  0  0  0  0  0  0  0  0
   10.0000    4.9300   12.9200 C   0  0  0  0  0  0  0  0  0  0  0  0
  1  4  2  0
 11  5  1  0
  4  3  1  0
  4 10  1  0
  3  6  1  0
  5  7  1  0
 10  8  2  0
  6  7  1  0
  6  9  2  0
  7  2  2  0
  8  9  1  0
M  END
>  <id>  (412) 
6200

>  <inchikey>  (412) 
BJFHABUKRPPLGH-UHFFFAOYSA-N

>  <alias>  (412) 
6w91-d

>  <smiles>  (412) 
COC(=O)c1ccnc(=O)[nH]1

>  <path>  (412) 
/opt/xchem-fragalysis-2/maxwin/CHIKV_Mac_20240920/aligned_files/6w91-d/6w91-d_hippo.pdb

>  <compound>  (412) 
BJFHABUKRPPLGH-UHFFFAOYSA-N

>  <target>  (412) 
CHIKV_Mac

>  <tags>  (412) 
['[Other] New', 'hits', '[Other] Ribose site', '[Other] Phosphate site']

>  <reference>  (412) 
None

>  <exports>  (412) 
['/opt/xchem-fragalysis-2/maxwin/CHIKV_HIPPO/web_resources/hit_poses.sdf', '/opt/xchem-fragalysis-2/maxwin/CHIKV_HIPPO/web/web_resources/hit_poses.sdf', '/opt/xchem-fragalysis-2/maxwin/CHIKV_HIPPO/web2/web_resources/hit_poses.sdf']

>  <observation_longname>  (412) 
nan

>  <ConformerSites alias>  (412) 
nan

>  <CanonSites alias>  (412) 
nan

>  <CrystalformSites alias>  (412) 
nan

>  <Quatassemblies alias>  (412) 
nan

>  <Crystalforms alias>  (412) 
nan

$$$$
6w0t-a
     RDKit          3D

 14 14  0  0  0  0  0  0  0  0999 V2000
    4.7680    5.3590   14.1800 N   0  0  0  0  0  0  0  0  0  0  0  0
    7.2710    4.4350   14.6830 C   0  0  0  0  0  0  0  0  0  0  0  0
    6.7640    5.4940   15.4500 C   0  0  0  0  0  0  0  0  0  0  0  0
    5.4680    5.9500   15.1680 C   0  0  0  0  0  0  0  0  0  0  0  0
    4.7450    7.0820   15.8790 C   0  0  0  0  0  0  0  0  0  0  0  0
    4.8420    9.3010   16.9920 C   0  0  0  0  0  0  0  0  0  0  0  0
    5.7040    7.2860   18.1760 C   0  0  0  0  0  0  0  0  0  0  0  0
    5.2770    4.3520   13.4520 C   0  0  0  0  0  0  0  0  0  0  0  0
    4.5770    3.8530   12.5480 O   0  0  0  0  0  0  0  0  0  0  0  0
    6.5220    3.8820   13.6910 N   0  0  0  0  0  0  0  0  0  0  0  0
    8.6460    3.8920   14.9150 C   0  0  0  0  0  0  0  0  0  0  0  0
    8.9090    3.2340   15.9450 O   0  0  0  0  0  0  0  0  0  0  0  0
    9.5200    4.0910   14.0500 O   0  0  0  0  0  0  0  0  0  0  0  0
    5.5490    7.9610   16.8220 C   0  0  0  0  0  0  0  0  0  0  0  0
  9  8  2  0
  8 10  1  0
  8  1  1  0
 10  2  1  0
  1  4  2  0
 13 11  2  0
  2 11  1  0
  2  3  2  0
 11 12  1  0
  4  3  1  0
  4  5  1  0
  5 14  1  0
 14  6  1  0
 14  7  1  0
M  END
>  <id>  (413) 
6201

>  <inchikey>  (413) 
WDIFSCKLWBVBLR-UHFFFAOYSA-N

>  <alias>  (413) 
6w0t-a

>  <smiles>  (413) 
CC(C)Cc1cc(C(=O)O)[nH]c(=O)n1

>  <path>  (413) 
/opt/xchem-fragalysis-2/maxwin/CHIKV_Mac_20240920/aligned_files/6w0t-a/6w0t-a_hippo.pdb

>  <compound>  (413) 
WDIFSCKLWBVBLR-UHFFFAOYSA-N

>  <target>  (413) 
CHIKV_Mac

>  <tags>  (413) 
['hits', '[Other] external', '[Other] Ribose site', '[Other] Phosphate site']

>  <reference>  (413) 
None

>  <exports>  (413) 
['/opt/xchem-fragalysis-2/maxwin/CHIKV_HIPPO/web_resources/hit_poses.sdf', '/opt/xchem-fragalysis-2/maxwin/CHIKV_HIPPO/web/web_resources/hit_poses.sdf', '/opt/xchem-fragalysis-2/maxwin/CHIKV_HIPPO/web2/web_resources/hit_poses.sdf']

>  <observation_longname>  (413) 
nan

>  <ConformerSites alias>  (413) 
nan

>  <CanonSites alias>  (413) 
nan

>  <CrystalformSites alias>  (413) 
nan

>  <Quatassemblies alias>  (413) 
nan

>  <Crystalforms alias>  (413) 
nan

$$$$
6w0t-b
     RDKit          3D

 14 14  0  0  0  0  0  0  0  0999 V2000
    4.7140    5.4320   14.2890 N   0  0  0  0  0  0  0  0  0  0  0  0
    7.2820    4.6600   14.7110 C   0  0  0  0  0  0  0  0  0  0  0  0
    6.7310    5.6720   15.5040 C   0  0  0  0  0  0  0  0  0  0  0  0
    5.4030    6.0570   15.2650 C   0  0  0  0  0  0  0  0  0  0  0  0
    4.6500    7.1330   16.0310 C   0  0  0  0  0  0  0  0  0  0  0  0
    4.8090    9.4930   16.9030 C   0  0  0  0  0  0  0  0  0  0  0  0
    5.6580    7.5720   18.2660 C   0  0  0  0  0  0  0  0  0  0  0  0
    5.2600    4.4620   13.5370 C   0  0  0  0  0  0  0  0  0  0  0  0
    4.5770    3.9200   12.6420 O   0  0  0  0  0  0  0  0  0  0  0  0
    6.5400    4.0720   13.7390 N   0  0  0  0  0  0  0  0  0  0  0  0
    8.6910    4.2050   14.9130 C   0  0  0  0  0  0  0  0  0  0  0  0
    9.0080    3.6840   16.0060 O   0  0  0  0  0  0  0  0  0  0  0  0
    9.5100    4.3460   13.9780 O   0  0  0  0  0  0  0  0  0  0  0  0
    5.4710    8.1180   16.8590 C   0  0  0  0  0  0  0  0  0  0  0  0
  9  8  2  0
  8 10  1  0
  8  1  1  0
 10  2  1  0
  1  4  2  0
 13 11  2  0
  2 11  1  0
  2  3  2  0
 11 12  1  0
  4  3  1  0
  4  5  1  0
  5 14  1  0
 14  6  1  0
 14  7  1  0
M  END
>  <id>  (414) 
6202

>  <inchikey>  (414) 
WDIFSCKLWBVBLR-UHFFFAOYSA-N

>  <alias>  (414) 
6w0t-b

>  <smiles>  (414) 
CC(C)Cc1cc(C(=O)O)[nH]c(=O)n1

>  <path>  (414) 
/opt/xchem-fragalysis-2/maxwin/CHIKV_Mac_20240920/aligned_files/6w0t-b/6w0t-b_hippo.pdb

>  <compound>  (414) 
WDIFSCKLWBVBLR-UHFFFAOYSA-N

>  <target>  (414) 
CHIKV_Mac

>  <tags>  (414) 
['[Other] New', 'hits', '[Other] Ribose site', '[Other] Phosphate site']

>  <reference>  (414) 
None

>  <exports>  (414) 
['/opt/xchem-fragalysis-2/maxwin/CHIKV_HIPPO/web_resources/hit_poses.sdf', '/opt/xchem-fragalysis-2/maxwin/CHIKV_HIPPO/web/web_resources/hit_poses.sdf', '/opt/xchem-fragalysis-2/maxwin/CHIKV_HIPPO/web2/web_resources/hit_poses.sdf']

>  <observation_longname>  (414) 
nan

>  <ConformerSites alias>  (414) 
nan

>  <CanonSites alias>  (414) 
nan

>  <CrystalformSites alias>  (414) 
nan

>  <Quatassemblies alias>  (414) 
nan

>  <Crystalforms alias>  (414) 
nan

$$$$
6w0t-c
     RDKit          3D

 14 14  0  0  0  0  0  0  0  0999 V2000
    4.6540    5.2920   14.0010 N   0  0  0  0  0  0  0  0  0  0  0  0
    7.2380    4.5150   14.3530 C   0  0  0  0  0  0  0  0  0  0  0  0
    6.6970    5.4990   15.1830 C   0  0  0  0  0  0  0  0  0  0  0  0
    5.3630    5.8900   14.9850 C   0  0  0  0  0  0  0  0  0  0  0  0
    4.6400    6.9450   15.8100 C   0  0  0  0  0  0  0  0  0  0  0  0
    4.8070    9.2370   16.8310 C   0  0  0  0  0  0  0  0  0  0  0  0
    5.8370    7.2890   17.9930 C   0  0  0  0  0  0  0  0  0  0  0  0
    5.1930    4.3400   13.2100 C   0  0  0  0  0  0  0  0  0  0  0  0
    4.4910    3.8240   12.3140 O   0  0  0  0  0  0  0  0  0  0  0  0
    6.4810    3.9470   13.3760 N   0  0  0  0  0  0  0  0  0  0  0  0
    8.6570    4.0870   14.5390 C   0  0  0  0  0  0  0  0  0  0  0  0
    9.0060    3.5990   15.6380 O   0  0  0  0  0  0  0  0  0  0  0  0
    9.4580    4.2200   13.5870 O   0  0  0  0  0  0  0  0  0  0  0  0
    5.5060    7.8980   16.6360 C   0  0  0  0  0  0  0  0  0  0  0  0
  9  8  2  0
  8 10  1  0
  8  1  1  0
 10  2  1  0
  1  4  2  0
 13 11  2  0
  2 11  1  0
  2  3  2  0
 11 12  1  0
  4  3  1  0
  4  5  1  0
  5 14  1  0
 14  6  1  0
 14  7  1  0
M  END
>  <id>  (415) 
6203

>  <inchikey>  (415) 
WDIFSCKLWBVBLR-UHFFFAOYSA-N

>  <alias>  (415) 
6w0t-c

>  <smiles>  (415) 
CC(C)Cc1cc(C(=O)O)[nH]c(=O)n1

>  <path>  (415) 
/opt/xchem-fragalysis-2/maxwin/CHIKV_Mac_20240920/aligned_files/6w0t-c/6w0t-c_hippo.pdb

>  <compound>  (415) 
WDIFSCKLWBVBLR-UHFFFAOYSA-N

>  <target>  (415) 
CHIKV_Mac

>  <tags>  (415) 
['[Other] New', 'hits', '[Other] Ribose site', '[Other] Phosphate site']

>  <reference>  (415) 
None

>  <exports>  (415) 
['/opt/xchem-fragalysis-2/maxwin/CHIKV_HIPPO/web_resources/hit_poses.sdf', '/opt/xchem-fragalysis-2/maxwin/CHIKV_HIPPO/web/web_resources/hit_poses.sdf', '/opt/xchem-fragalysis-2/maxwin/CHIKV_HIPPO/web2/web_resources/hit_poses.sdf']

>  <observation_longname>  (415) 
nan

>  <ConformerSites alias>  (415) 
nan

>  <CanonSites alias>  (415) 
nan

>  <CrystalformSites alias>  (415) 
nan

>  <Quatassemblies alias>  (415) 
nan

>  <Crystalforms alias>  (415) 
nan

$$$$
6w0t-d
     RDKit          3D

 14 14  0  0  0  0  0  0  0  0999 V2000
    4.7930    5.4700   14.1450 N   0  0  0  0  0  0  0  0  0  0  0  0
    7.3210    4.5860   14.5790 C   0  0  0  0  0  0  0  0  0  0  0  0
    6.8050    5.6040   15.3820 C   0  0  0  0  0  0  0  0  0  0  0  0
    5.4970    6.0470   15.1410 C   0  0  0  0  0  0  0  0  0  0  0  0
    4.7880    7.1450   15.9210 C   0  0  0  0  0  0  0  0  0  0  0  0
    5.0400    9.4230   16.9920 C   0  0  0  0  0  0  0  0  0  0  0  0
    5.8380    7.3750   18.1810 C   0  0  0  0  0  0  0  0  0  0  0  0
    5.3040    4.4870   13.3780 C   0  0  0  0  0  0  0  0  0  0  0  0
    4.6060    3.9860   12.4640 O   0  0  0  0  0  0  0  0  0  0  0  0
    6.5640    4.0420   13.5900 N   0  0  0  0  0  0  0  0  0  0  0  0
    8.7150    4.0810   14.8000 C   0  0  0  0  0  0  0  0  0  0  0  0
    9.5530    4.1950   13.8810 O   0  0  0  0  0  0  0  0  0  0  0  0
    9.0050    3.5420   15.8910 O   0  0  0  0  0  0  0  0  0  0  0  0
    5.6480    8.0300   16.8180 C   0  0  0  0  0  0  0  0  0  0  0  0
  9  8  2  0
  8 10  1  0
  8  1  1  0
 10  2  1  0
  1  4  2  0
 13 11  2  0
  2 11  1  0
  2  3  2  0
 11 12  1  0
  4  3  1  0
  4  5  1  0
  5 14  1  0
 14  6  1  0
 14  7  1  0
M  END
>  <id>  (416) 
6204

>  <inchikey>  (416) 
WDIFSCKLWBVBLR-UHFFFAOYSA-N

>  <alias>  (416) 
6w0t-d

>  <smiles>  (416) 
CC(C)Cc1cc(C(=O)O)[nH]c(=O)n1

>  <path>  (416) 
/opt/xchem-fragalysis-2/maxwin/CHIKV_Mac_20240920/aligned_files/6w0t-d/6w0t-d_hippo.pdb

>  <compound>  (416) 
WDIFSCKLWBVBLR-UHFFFAOYSA-N

>  <target>  (416) 
CHIKV_Mac

>  <tags>  (416) 
['[Other] New', 'hits', '[Other] Ribose site', '[Other] Phosphate site']

>  <reference>  (416) 
None

>  <exports>  (416) 
['/opt/xchem-fragalysis-2/maxwin/CHIKV_HIPPO/web_resources/hit_poses.sdf', '/opt/xchem-fragalysis-2/maxwin/CHIKV_HIPPO/web/web_resources/hit_poses.sdf', '/opt/xchem-fragalysis-2/maxwin/CHIKV_HIPPO/web2/web_resources/hit_poses.sdf']

>  <observation_longname>  (416) 
nan

>  <ConformerSites alias>  (416) 
nan

>  <CanonSites alias>  (416) 
nan

>  <CrystalformSites alias>  (416) 
nan

>  <Quatassemblies alias>  (416) 
nan

>  <Crystalforms alias>  (416) 
nan

$$$$
6w8k-a
     RDKit          3D

 12 12  0  0  0  0  0  0  0  0999 V2000
    4.7080    3.8870   12.4570 O   0  0  0  0  0  0  0  0  0  0  0  0
    5.3240    4.3820   13.4580 C   0  0  0  0  0  0  0  0  0  0  0  0
    6.5630    3.9340   13.7490 N   0  0  0  0  0  0  0  0  0  0  0  0
    4.6950    5.3280   14.1910 N   0  0  0  0  0  0  0  0  0  0  0  0
    5.3200    5.9500   15.2350 C   0  0  0  0  0  0  0  0  0  0  0  0
    4.6470    6.9720   16.0430 C   0  0  0  0  0  0  0  0  0  0  0  0
    6.6360    5.4930   15.6230 C   0  0  0  0  0  0  0  0  0  0  0  0
    7.3930    6.0820   16.8100 C   0  0  0  0  0  0  0  0  0  0  0  0
    7.2230    4.4570   14.7890 C   0  0  0  0  0  0  0  0  0  0  0  0
    8.5950    3.9350   15.0260 C   0  0  0  0  0  0  0  0  0  0  0  0
    8.8660    3.0360   15.8480 O   0  0  0  0  0  0  0  0  0  0  0  0
    9.4710    4.4620   14.3540 O   0  0  0  0  0  0  0  0  0  0  0  0
  8  7  1  0
  6  5  1  0
 11 10  2  0
  7  5  1  0
  7  9  2  0
  5  4  2  0
 10  9  1  0
 10 12  1  0
  9  3  1  0
  4  2  1  0
  3  2  1  0
  2  1  2  0
M  END
>  <id>  (417) 
6205

>  <inchikey>  (417) 
ZXECTTZQEACQGR-UHFFFAOYSA-N

>  <alias>  (417) 
6w8k-a

>  <smiles>  (417) 
Cc1nc(=O)[nH]c(C(=O)O)c1C

>  <path>  (417) 
/opt/xchem-fragalysis-2/maxwin/CHIKV_Mac_20240920/aligned_files/6w8k-a/6w8k-a_hippo.pdb

>  <compound>  (417) 
ZXECTTZQEACQGR-UHFFFAOYSA-N

>  <target>  (417) 
CHIKV_Mac

>  <tags>  (417) 
['hits', '[Other] external', '[Other] Ribose site', '[Other] Phosphate site']

>  <reference>  (417) 
None

>  <exports>  (417) 
['/opt/xchem-fragalysis-2/maxwin/CHIKV_HIPPO/web_resources/hit_poses.sdf', '/opt/xchem-fragalysis-2/maxwin/CHIKV_HIPPO/web/web_resources/hit_poses.sdf', '/opt/xchem-fragalysis-2/maxwin/CHIKV_HIPPO/web2/web_resources/hit_poses.sdf']

>  <observation_longname>  (417) 
nan

>  <ConformerSites alias>  (417) 
nan

>  <CanonSites alias>  (417) 
nan

>  <CrystalformSites alias>  (417) 
nan

>  <Quatassemblies alias>  (417) 
nan

>  <Crystalforms alias>  (417) 
nan

$$$$
6w8k-b
     RDKit          3D

 12 12  0  0  0  0  0  0  0  0999 V2000
    4.3980    3.4040   12.2200 O   0  0  0  0  0  0  0  0  0  0  0  0
    4.9880    3.9410   13.1630 C   0  0  0  0  0  0  0  0  0  0  0  0
    6.2510    3.6020   13.3840 N   0  0  0  0  0  0  0  0  0  0  0  0
    4.3130    4.9260   13.8880 N   0  0  0  0  0  0  0  0  0  0  0  0
    4.9350    5.5420   14.9210 C   0  0  0  0  0  0  0  0  0  0  0  0
    4.2420    6.6200   15.7610 C   0  0  0  0  0  0  0  0  0  0  0  0
    6.3300    5.2050   15.2080 C   0  0  0  0  0  0  0  0  0  0  0  0
    7.0920    5.8720   16.3130 C   0  0  0  0  0  0  0  0  0  0  0  0
    6.9690    4.1480   14.3720 C   0  0  0  0  0  0  0  0  0  0  0  0
    8.3800    3.7790   14.6130 C   0  0  0  0  0  0  0  0  0  0  0  0
    8.6740    3.2660   15.7220 O   0  0  0  0  0  0  0  0  0  0  0  0
    9.2600    3.9680   13.7300 O   0  0  0  0  0  0  0  0  0  0  0  0
  8  7  1  0
  6  5  1  0
 11 10  2  0
  7  5  1  0
  7  9  2  0
  5  4  2  0
 10  9  1  0
 10 12  1  0
  9  3  1  0
  4  2  1  0
  3  2  1  0
  2  1  2  0
M  END
>  <id>  (418) 
6206

>  <inchikey>  (418) 
ZXECTTZQEACQGR-UHFFFAOYSA-N

>  <alias>  (418) 
6w8k-b

>  <smiles>  (418) 
Cc1nc(=O)[nH]c(C(=O)O)c1C

>  <path>  (418) 
/opt/xchem-fragalysis-2/maxwin/CHIKV_Mac_20240920/aligned_files/6w8k-b/6w8k-b_hippo.pdb

>  <compound>  (418) 
ZXECTTZQEACQGR-UHFFFAOYSA-N

>  <target>  (418) 
CHIKV_Mac

>  <tags>  (418) 
['[Other] New', 'hits', '[Other] Ribose site', '[Other] Phosphate site']

>  <reference>  (418) 
None

>  <exports>  (418) 
['/opt/xchem-fragalysis-2/maxwin/CHIKV_HIPPO/web_resources/hit_poses.sdf', '/opt/xchem-fragalysis-2/maxwin/CHIKV_HIPPO/web/web_resources/hit_poses.sdf', '/opt/xchem-fragalysis-2/maxwin/CHIKV_HIPPO/web2/web_resources/hit_poses.sdf']

>  <observation_longname>  (418) 
nan

>  <ConformerSites alias>  (418) 
nan

>  <CanonSites alias>  (418) 
nan

>  <CrystalformSites alias>  (418) 
nan

>  <Quatassemblies alias>  (418) 
nan

>  <Crystalforms alias>  (418) 
nan

$$$$
6w8k-c
     RDKit          3D

 12 12  0  0  0  0  0  0  0  0999 V2000
    4.6490    3.8590   12.4840 O   0  0  0  0  0  0  0  0  0  0  0  0
    5.2890    4.3560   13.4290 C   0  0  0  0  0  0  0  0  0  0  0  0
    6.5530    3.9240   13.7170 N   0  0  0  0  0  0  0  0  0  0  0  0
    4.7380    5.3640   14.1450 N   0  0  0  0  0  0  0  0  0  0  0  0
    5.3070    5.9650   15.1890 C   0  0  0  0  0  0  0  0  0  0  0  0
    4.5980    7.0220   15.9550 C   0  0  0  0  0  0  0  0  0  0  0  0
    6.6670    5.5450   15.5580 C   0  0  0  0  0  0  0  0  0  0  0  0
    7.4730    6.1090   16.6720 C   0  0  0  0  0  0  0  0  0  0  0  0
    7.2150    4.4640   14.7180 C   0  0  0  0  0  0  0  0  0  0  0  0
    8.6090    3.9530   15.0060 C   0  0  0  0  0  0  0  0  0  0  0  0
    9.5020    4.3930   14.3040 O   0  0  0  0  0  0  0  0  0  0  0  0
    8.8000    3.1200   15.8830 O   0  0  0  0  0  0  0  0  0  0  0  0
  8  7  1  0
  6  5  1  0
 11 10  2  0
  7  5  1  0
  7  9  2  0
  5  4  2  0
 10  9  1  0
 10 12  1  0
  9  3  1  0
  4  2  1  0
  3  2  1  0
  2  1  2  0
M  END
>  <id>  (419) 
6207

>  <inchikey>  (419) 
ZXECTTZQEACQGR-UHFFFAOYSA-N

>  <alias>  (419) 
6w8k-c

>  <smiles>  (419) 
Cc1nc(=O)[nH]c(C(=O)O)c1C

>  <path>  (419) 
/opt/xchem-fragalysis-2/maxwin/CHIKV_Mac_20240920/aligned_files/6w8k-c/6w8k-c_hippo.pdb

>  <compound>  (419) 
ZXECTTZQEACQGR-UHFFFAOYSA-N

>  <target>  (419) 
CHIKV_Mac

>  <tags>  (419) 
['[Other] New', 'hits', '[Other] Ribose site', '[Other] Phosphate site']

>  <reference>  (419) 
None

>  <exports>  (419) 
['/opt/xchem-fragalysis-2/maxwin/CHIKV_HIPPO/web_resources/hit_poses.sdf', '/opt/xchem-fragalysis-2/maxwin/CHIKV_HIPPO/web/web_resources/hit_poses.sdf', '/opt/xchem-fragalysis-2/maxwin/CHIKV_HIPPO/web2/web_resources/hit_poses.sdf']

>  <observation_longname>  (419) 
nan

>  <ConformerSites alias>  (419) 
nan

>  <CanonSites alias>  (419) 
nan

>  <CrystalformSites alias>  (419) 
nan

>  <Quatassemblies alias>  (419) 
nan

>  <Crystalforms alias>  (419) 
nan

$$$$
6w8k-d
     RDKit          3D

 12 12  0  0  0  0  0  0  0  0999 V2000
    4.6480    3.9080   12.4040 O   0  0  0  0  0  0  0  0  0  0  0  0
    5.2420    4.4070   13.4180 C   0  0  0  0  0  0  0  0  0  0  0  0
    6.5080    4.0510   13.6720 N   0  0  0  0  0  0  0  0  0  0  0  0
    4.5860    5.3170   14.1350 N   0  0  0  0  0  0  0  0  0  0  0  0
    5.1430    5.9370   15.2360 C   0  0  0  0  0  0  0  0  0  0  0  0
    4.3210    6.9310   15.9950 C   0  0  0  0  0  0  0  0  0  0  0  0
    6.5230    5.5570   15.6220 C   0  0  0  0  0  0  0  0  0  0  0  0
    7.2530    6.1380   16.7960 C   0  0  0  0  0  0  0  0  0  0  0  0
    7.1780    4.5360   14.7670 C   0  0  0  0  0  0  0  0  0  0  0  0
    8.5710    4.0340   15.0090 C   0  0  0  0  0  0  0  0  0  0  0  0
    8.8120    3.4600   16.0970 O   0  0  0  0  0  0  0  0  0  0  0  0
    9.4630    4.1290   14.1330 O   0  0  0  0  0  0  0  0  0  0  0  0
  8  7  1  0
  6  5  1  0
 11 10  2  0
  7  5  1  0
  7  9  2  0
  5  4  2  0
 10  9  1  0
 10 12  1  0
  9  3  1  0
  4  2  1  0
  3  2  1  0
  2  1  2  0
M  END
>  <id>  (420) 
6208

>  <inchikey>  (420) 
ZXECTTZQEACQGR-UHFFFAOYSA-N

>  <alias>  (420) 
6w8k-d

>  <smiles>  (420) 
Cc1nc(=O)[nH]c(C(=O)O)c1C

>  <path>  (420) 
/opt/xchem-fragalysis-2/maxwin/CHIKV_Mac_20240920/aligned_files/6w8k-d/6w8k-d_hippo.pdb

>  <compound>  (420) 
ZXECTTZQEACQGR-UHFFFAOYSA-N

>  <target>  (420) 
CHIKV_Mac

>  <tags>  (420) 
['[Other] New', 'hits', '[Other] Ribose site', '[Other] Phosphate site']

>  <reference>  (420) 
None

>  <exports>  (420) 
['/opt/xchem-fragalysis-2/maxwin/CHIKV_HIPPO/web_resources/hit_poses.sdf', '/opt/xchem-fragalysis-2/maxwin/CHIKV_HIPPO/web/web_resources/hit_poses.sdf', '/opt/xchem-fragalysis-2/maxwin/CHIKV_HIPPO/web2/web_resources/hit_poses.sdf']

>  <observation_longname>  (420) 
nan

>  <ConformerSites alias>  (420) 
nan

>  <CanonSites alias>  (420) 
nan

>  <CrystalformSites alias>  (420) 
nan

>  <Quatassemblies alias>  (420) 
nan

>  <Crystalforms alias>  (420) 
nan

$$$$
6w8m-a
     RDKit          3D

 14 15  0  0  0  0  0  0  0  0999 V2000
    4.6650    3.8150   12.4770 O   0  0  0  0  0  0  0  0  0  0  0  0
    8.8980    3.2090   15.8080 O   0  0  0  0  0  0  0  0  0  0  0  0
    9.4850    4.1410   13.9200 O   0  0  0  0  0  0  0  0  0  0  0  0
    8.6410    3.9150   14.8070 C   0  0  0  0  0  0  0  0  0  0  0  0
    7.2560    4.4560   14.6540 C   0  0  0  0  0  0  0  0  0  0  0  0
    6.5450    3.9230   13.6600 N   0  0  0  0  0  0  0  0  0  0  0  0
    6.6280    5.4780   15.5300 C   0  0  0  0  0  0  0  0  0  0  0  0
    7.2800    6.0710   16.6060 C   0  0  0  0  0  0  0  0  0  0  0  0
    6.6390    7.0250   17.3800 C   0  0  0  0  0  0  0  0  0  0  0  0
    5.3230    7.3710   17.1020 C   0  0  0  0  0  0  0  0  0  0  0  0
    4.6610    6.7730   16.0220 C   0  0  0  0  0  0  0  0  0  0  0  0
    5.3170    5.8320   15.2310 C   0  0  0  0  0  0  0  0  0  0  0  0
    4.6830    5.2300   14.2060 N   0  0  0  0  0  0  0  0  0  0  0  0
    5.2840    4.3350   13.4230 C   0  0  0  0  0  0  0  0  0  0  0  0
  9 10  2  0
  9  8  1  0
 10 11  1  0
  8  7  2  0
 11 12  2  0
  2  4  2  0
  7 12  1  0
  7  5  1  0
 12 13  1  0
  4  5  1  0
  4  3  1  0
  5  6  2  0
 13 14  1  0
  6 14  1  0
 14  1  2  0
M  END
>  <id>  (421) 
6209

>  <inchikey>  (421) 
JMRRYHBZGAQICA-UHFFFAOYSA-N

>  <alias>  (421) 
6w8m-a

>  <smiles>  (421) 
O=C(O)c1nc(=O)[nH]c2ccccc12

>  <path>  (421) 
/opt/xchem-fragalysis-2/maxwin/CHIKV_Mac_20240920/aligned_files/6w8m-a/6w8m-a_hippo.pdb

>  <compound>  (421) 
JMRRYHBZGAQICA-UHFFFAOYSA-N

>  <target>  (421) 
CHIKV_Mac

>  <tags>  (421) 
['hits', '[Other] external', '[Other] Ribose site', '[Other] Phosphate site']

>  <reference>  (421) 
None

>  <exports>  (421) 
['/opt/xchem-fragalysis-2/maxwin/CHIKV_HIPPO/web_resources/hit_poses.sdf', '/opt/xchem-fragalysis-2/maxwin/CHIKV_HIPPO/web/web_resources/hit_poses.sdf', '/opt/xchem-fragalysis-2/maxwin/CHIKV_HIPPO/web2/web_resources/hit_poses.sdf']

>  <observation_longname>  (421) 
nan

>  <ConformerSites alias>  (421) 
nan

>  <CanonSites alias>  (421) 
nan

>  <CrystalformSites alias>  (421) 
nan

>  <Quatassemblies alias>  (421) 
nan

>  <Crystalforms alias>  (421) 
nan

$$$$
6w8m-b
     RDKit          3D

 14 15  0  0  0  0  0  0  0  0999 V2000
    4.6720    3.9920   12.5060 O   0  0  0  0  0  0  0  0  0  0  0  0
    8.9960    3.5850   15.9440 O   0  0  0  0  0  0  0  0  0  0  0  0
    9.5510    4.4510   14.0260 O   0  0  0  0  0  0  0  0  0  0  0  0
    8.6950    4.2190   14.9090 C   0  0  0  0  0  0  0  0  0  0  0  0
    7.2830    4.6810   14.7080 C   0  0  0  0  0  0  0  0  0  0  0  0
    6.5740    4.1390   13.6880 N   0  0  0  0  0  0  0  0  0  0  0  0
    6.6160    5.7200   15.5450 C   0  0  0  0  0  0  0  0  0  0  0  0
    7.2460    6.3520   16.6170 C   0  0  0  0  0  0  0  0  0  0  0  0
    6.5560    7.3050   17.3730 C   0  0  0  0  0  0  0  0  0  0  0  0
    5.2450    7.6390   17.0700 C   0  0  0  0  0  0  0  0  0  0  0  0
    4.6180    7.0020   15.9910 C   0  0  0  0  0  0  0  0  0  0  0  0
    5.3020    6.0510   15.2380 C   0  0  0  0  0  0  0  0  0  0  0  0
    4.6800    5.4330   14.2080 N   0  0  0  0  0  0  0  0  0  0  0  0
    5.2980    4.5150   13.4590 C   0  0  0  0  0  0  0  0  0  0  0  0
  9 10  2  0
  9  8  1  0
 10 11  1  0
  8  7  2  0
 11 12  2  0
  2  4  2  0
  7 12  1  0
  7  5  1  0
 12 13  1  0
  4  5  1  0
  4  3  1  0
  5  6  2  0
 13 14  1  0
  6 14  1  0
 14  1  2  0
M  END
>  <id>  (422) 
6210

>  <inchikey>  (422) 
JMRRYHBZGAQICA-UHFFFAOYSA-N

>  <alias>  (422) 
6w8m-b

>  <smiles>  (422) 
O=C(O)c1nc(=O)[nH]c2ccccc12

>  <path>  (422) 
/opt/xchem-fragalysis-2/maxwin/CHIKV_Mac_20240920/aligned_files/6w8m-b/6w8m-b_hippo.pdb

>  <compound>  (422) 
JMRRYHBZGAQICA-UHFFFAOYSA-N

>  <target>  (422) 
CHIKV_Mac

>  <tags>  (422) 
['[Other] New', 'hits', '[Other] Ribose site', '[Other] Phosphate site']

>  <reference>  (422) 
None

>  <exports>  (422) 
['/opt/xchem-fragalysis-2/maxwin/CHIKV_HIPPO/web_resources/hit_poses.sdf', '/opt/xchem-fragalysis-2/maxwin/CHIKV_HIPPO/web/web_resources/hit_poses.sdf', '/opt/xchem-fragalysis-2/maxwin/CHIKV_HIPPO/web2/web_resources/hit_poses.sdf']

>  <observation_longname>  (422) 
nan

>  <ConformerSites alias>  (422) 
nan

>  <CanonSites alias>  (422) 
nan

>  <CrystalformSites alias>  (422) 
nan

>  <Quatassemblies alias>  (422) 
nan

>  <Crystalforms alias>  (422) 
nan

$$$$
6w8m-c
     RDKit          3D

 14 15  0  0  0  0  0  0  0  0999 V2000
    4.3330    3.3700   12.2620 O   0  0  0  0  0  0  0  0  0  0  0  0
    8.7460    3.3050   15.6790 O   0  0  0  0  0  0  0  0  0  0  0  0
    9.2440    4.0500   13.6800 O   0  0  0  0  0  0  0  0  0  0  0  0
    8.4080    3.8290   14.5860 C   0  0  0  0  0  0  0  0  0  0  0  0
    6.9660    4.1750   14.3800 C   0  0  0  0  0  0  0  0  0  0  0  0
    6.2590    3.5980   13.3840 N   0  0  0  0  0  0  0  0  0  0  0  0
    6.2810    5.1630   15.2600 C   0  0  0  0  0  0  0  0  0  0  0  0
    6.9380    5.8010   16.3130 C   0  0  0  0  0  0  0  0  0  0  0  0
    6.2480    6.7140   17.1100 C   0  0  0  0  0  0  0  0  0  0  0  0
    4.9050    6.9720   16.8660 C   0  0  0  0  0  0  0  0  0  0  0  0
    4.2500    6.3380   15.8120 C   0  0  0  0  0  0  0  0  0  0  0  0
    4.9390    5.4210   15.0080 C   0  0  0  0  0  0  0  0  0  0  0  0
    4.3120    4.7920   13.9820 N   0  0  0  0  0  0  0  0  0  0  0  0
    4.9560    3.8950   13.1990 C   0  0  0  0  0  0  0  0  0  0  0  0
  9 10  2  0
  9  8  1  0
 10 11  1  0
  8  7  2  0
 11 12  2  0
  2  4  2  0
  7 12  1  0
  7  5  1  0
 12 13  1  0
  4  5  1  0
  4  3  1  0
  5  6  2  0
 13 14  1  0
  6 14  1  0
 14  1  2  0
M  END
>  <id>  (423) 
6211

>  <inchikey>  (423) 
JMRRYHBZGAQICA-UHFFFAOYSA-N

>  <alias>  (423) 
6w8m-c

>  <smiles>  (423) 
O=C(O)c1nc(=O)[nH]c2ccccc12

>  <path>  (423) 
/opt/xchem-fragalysis-2/maxwin/CHIKV_Mac_20240920/aligned_files/6w8m-c/6w8m-c_hippo.pdb

>  <compound>  (423) 
JMRRYHBZGAQICA-UHFFFAOYSA-N

>  <target>  (423) 
CHIKV_Mac

>  <tags>  (423) 
['[Other] New', 'hits', '[Other] Ribose site', '[Other] Phosphate site']

>  <reference>  (423) 
None

>  <exports>  (423) 
['/opt/xchem-fragalysis-2/maxwin/CHIKV_HIPPO/web_resources/hit_poses.sdf', '/opt/xchem-fragalysis-2/maxwin/CHIKV_HIPPO/web/web_resources/hit_poses.sdf', '/opt/xchem-fragalysis-2/maxwin/CHIKV_HIPPO/web2/web_resources/hit_poses.sdf']

>  <observation_longname>  (423) 
nan

>  <ConformerSites alias>  (423) 
nan

>  <CanonSites alias>  (423) 
nan

>  <CrystalformSites alias>  (423) 
nan

>  <Quatassemblies alias>  (423) 
nan

>  <Crystalforms alias>  (423) 
nan

$$$$
6w8m-d
     RDKit          3D

 14 15  0  0  0  0  0  0  0  0999 V2000
    4.5230    3.8890   12.5030 O   0  0  0  0  0  0  0  0  0  0  0  0
    9.4000    4.4250   13.8660 O   0  0  0  0  0  0  0  0  0  0  0  0
    8.8900    3.5680   15.8310 O   0  0  0  0  0  0  0  0  0  0  0  0
    8.6010    4.2040   14.7880 C   0  0  0  0  0  0  0  0  0  0  0  0
    7.1910    4.6750   14.6170 C   0  0  0  0  0  0  0  0  0  0  0  0
    6.4710    4.0960   13.6480 N   0  0  0  0  0  0  0  0  0  0  0  0
    6.5650    5.7170   15.4730 C   0  0  0  0  0  0  0  0  0  0  0  0
    7.2280    6.3680   16.5130 C   0  0  0  0  0  0  0  0  0  0  0  0
    6.5520    7.3270   17.2710 C   0  0  0  0  0  0  0  0  0  0  0  0
    5.2220    7.6320   16.9970 C   0  0  0  0  0  0  0  0  0  0  0  0
    4.5750    6.9790   15.9600 C   0  0  0  0  0  0  0  0  0  0  0  0
    5.2330    6.0180   15.1960 C   0  0  0  0  0  0  0  0  0  0  0  0
    4.5940    5.3750   14.1920 N   0  0  0  0  0  0  0  0  0  0  0  0
    5.1730    4.4370   13.4360 C   0  0  0  0  0  0  0  0  0  0  0  0
  9 10  2  0
  9  8  1  0
 10 11  1  0
  8  7  2  0
 11 12  2  0
  2  4  2  0
  7 12  1  0
  7  5  1  0
 12 13  1  0
  4  5  1  0
  4  3  1  0
  5  6  2  0
 13 14  1  0
  6 14  1  0
 14  1  2  0
M  END
>  <id>  (424) 
6212

>  <inchikey>  (424) 
JMRRYHBZGAQICA-UHFFFAOYSA-N

>  <alias>  (424) 
6w8m-d

>  <smiles>  (424) 
O=C(O)c1nc(=O)[nH]c2ccccc12

>  <path>  (424) 
/opt/xchem-fragalysis-2/maxwin/CHIKV_Mac_20240920/aligned_files/6w8m-d/6w8m-d_hippo.pdb

>  <compound>  (424) 
JMRRYHBZGAQICA-UHFFFAOYSA-N

>  <target>  (424) 
CHIKV_Mac

>  <tags>  (424) 
['[Other] New', 'hits', '[Other] Ribose site', '[Other] Phosphate site']

>  <reference>  (424) 
None

>  <exports>  (424) 
['/opt/xchem-fragalysis-2/maxwin/CHIKV_HIPPO/web_resources/hit_poses.sdf', '/opt/xchem-fragalysis-2/maxwin/CHIKV_HIPPO/web/web_resources/hit_poses.sdf', '/opt/xchem-fragalysis-2/maxwin/CHIKV_HIPPO/web2/web_resources/hit_poses.sdf']

>  <observation_longname>  (424) 
nan

>  <ConformerSites alias>  (424) 
nan

>  <CanonSites alias>  (424) 
nan

>  <CrystalformSites alias>  (424) 
nan

>  <Quatassemblies alias>  (424) 
nan

>  <Crystalforms alias>  (424) 
nan

$$$$
6w8y-d
     RDKit          3D

 10 10  0  0  0  0  0  0  0  0999 V2000
    4.7450    4.0400   12.3350 O   0  0  0  0  0  0  0  0  0  0  0  0
    5.2460    4.5810   13.3510 C   0  0  0  0  0  0  0  0  0  0  0  0
    4.5610    5.5080   14.0460 N   0  0  0  0  0  0  0  0  0  0  0  0
    5.1190    6.1150   15.1270 C   0  0  0  0  0  0  0  0  0  0  0  0
    6.4170    5.7560   15.5190 C   0  0  0  0  0  0  0  0  0  0  0  0
    6.4950    4.2140   13.6840 N   0  0  0  0  0  0  0  0  0  0  0  0
    7.0950    4.7770   14.7720 C   0  0  0  0  0  0  0  0  0  0  0  0
    8.4790    4.2980   15.1250 C   0  0  0  0  0  0  0  0  0  0  0  0
    9.4390    4.3290   14.3220 O   0  0  0  0  0  0  0  0  0  0  0  0
    8.6380    3.8080   16.2390 O   0  0  0  0  0  0  0  0  0  0  0  0
 10  8  2  0
  5  4  1  0
  5  7  2  0
  8  7  1  0
  8  9  1  0
  4  3  2  0
  7  6  1  0
  3  2  1  0
  6  2  1  0
  2  1  2  0
M  END
>  <id>  (425) 
6213

>  <inchikey>  (425) 
OEPPJKDEBZBNNG-UHFFFAOYSA-N

>  <alias>  (425) 
6w8y-d

>  <smiles>  (425) 
O=C(O)c1ccnc(=O)[nH]1

>  <path>  (425) 
/opt/xchem-fragalysis-2/maxwin/CHIKV_Mac_20240920/aligned_files/6w8y-d/6w8y-d_hippo.pdb

>  <compound>  (425) 
OEPPJKDEBZBNNG-UHFFFAOYSA-N

>  <target>  (425) 
CHIKV_Mac

>  <tags>  (425) 
['[Other] New', 'hits', '[Other] Ribose site', '[Other] Phosphate site']

>  <reference>  (425) 
None

>  <exports>  (425) 
['/opt/xchem-fragalysis-2/maxwin/CHIKV_HIPPO/web_resources/hit_poses.sdf', '/opt/xchem-fragalysis-2/maxwin/CHIKV_HIPPO/web/web_resources/hit_poses.sdf', '/opt/xchem-fragalysis-2/maxwin/CHIKV_HIPPO/web2/web_resources/hit_poses.sdf']

>  <observation_longname>  (425) 
nan

>  <ConformerSites alias>  (425) 
nan

>  <CanonSites alias>  (425) 
nan

>  <CrystalformSites alias>  (425) 
nan

>  <Quatassemblies alias>  (425) 
nan

>  <Crystalforms alias>  (425) 
nan

$$$$
6w8y-a
     RDKit          3D

 10 10  0  0  0  0  0  0  0  0999 V2000
    4.7420    3.4930   12.1580 O   0  0  0  0  0  0  0  0  0  0  0  0
    5.2230    4.1500   13.1320 C   0  0  0  0  0  0  0  0  0  0  0  0
    4.5180    5.1270   13.7600 N   0  0  0  0  0  0  0  0  0  0  0  0
    5.0590    5.8610   14.7610 C   0  0  0  0  0  0  0  0  0  0  0  0
    6.3540    5.5700   15.1950 C   0  0  0  0  0  0  0  0  0  0  0  0
    6.4780    3.8580   13.5230 N   0  0  0  0  0  0  0  0  0  0  0  0
    7.0470    4.5440   14.5350 C   0  0  0  0  0  0  0  0  0  0  0  0
    8.4450    4.1250   14.8940 C   0  0  0  0  0  0  0  0  0  0  0  0
    9.4040    4.3880   14.1390 O   0  0  0  0  0  0  0  0  0  0  0  0
    8.6390    3.4640   15.9080 O   0  0  0  0  0  0  0  0  0  0  0  0
 10  8  2  0
  5  4  1  0
  5  7  2  0
  8  7  1  0
  8  9  1  0
  4  3  2  0
  7  6  1  0
  3  2  1  0
  6  2  1  0
  2  1  2  0
M  END
>  <id>  (426) 
6214

>  <inchikey>  (426) 
OEPPJKDEBZBNNG-UHFFFAOYSA-N

>  <alias>  (426) 
6w8y-a

>  <smiles>  (426) 
O=C(O)c1ccnc(=O)[nH]1

>  <path>  (426) 
/opt/xchem-fragalysis-2/maxwin/CHIKV_Mac_20240920/aligned_files/6w8y-a/6w8y-a_hippo.pdb

>  <compound>  (426) 
OEPPJKDEBZBNNG-UHFFFAOYSA-N

>  <target>  (426) 
CHIKV_Mac

>  <tags>  (426) 
['hits', '[Other] external', '[Other] Ribose site', '[Other] Phosphate site']

>  <reference>  (426) 
None

>  <exports>  (426) 
['/opt/xchem-fragalysis-2/maxwin/CHIKV_HIPPO/web_resources/hit_poses.sdf', '/opt/xchem-fragalysis-2/maxwin/CHIKV_HIPPO/web/web_resources/hit_poses.sdf', '/opt/xchem-fragalysis-2/maxwin/CHIKV_HIPPO/web2/web_resources/hit_poses.sdf']

>  <observation_longname>  (426) 
nan

>  <ConformerSites alias>  (426) 
nan

>  <CanonSites alias>  (426) 
nan

>  <CrystalformSites alias>  (426) 
nan

>  <Quatassemblies alias>  (426) 
nan

>  <Crystalforms alias>  (426) 
nan

$$$$
6w8y-b
     RDKit          3D

 10 10  0  0  0  0  0  0  0  0999 V2000
    4.2630    3.4370   12.1620 O   0  0  0  0  0  0  0  0  0  0  0  0
    4.9290    4.0430   13.0150 C   0  0  0  0  0  0  0  0  0  0  0  0
    4.3430    5.0470   13.7400 N   0  0  0  0  0  0  0  0  0  0  0  0
    5.0760    5.7380   14.6660 C   0  0  0  0  0  0  0  0  0  0  0  0
    6.4250    5.4020   14.8680 C   0  0  0  0  0  0  0  0  0  0  0  0
    6.2370    3.6880   13.1760 N   0  0  0  0  0  0  0  0  0  0  0  0
    6.9820    4.3590   14.1080 C   0  0  0  0  0  0  0  0  0  0  0  0
    8.4180    4.0250   14.3350 C   0  0  0  0  0  0  0  0  0  0  0  0
    8.7490    3.9050   15.5270 O   0  0  0  0  0  0  0  0  0  0  0  0
    9.2040    3.9210   13.3490 O   0  0  0  0  0  0  0  0  0  0  0  0
 10  8  2  0
  5  4  1  0
  5  7  2  0
  8  7  1  0
  8  9  1  0
  4  3  2  0
  7  6  1  0
  3  2  1  0
  6  2  1  0
  2  1  2  0
M  END
>  <id>  (427) 
6215

>  <inchikey>  (427) 
OEPPJKDEBZBNNG-UHFFFAOYSA-N

>  <alias>  (427) 
6w8y-b

>  <smiles>  (427) 
O=C(O)c1ccnc(=O)[nH]1

>  <path>  (427) 
/opt/xchem-fragalysis-2/maxwin/CHIKV_Mac_20240920/aligned_files/6w8y-b/6w8y-b_hippo.pdb

>  <compound>  (427) 
OEPPJKDEBZBNNG-UHFFFAOYSA-N

>  <target>  (427) 
CHIKV_Mac

>  <tags>  (427) 
['[Other] New', 'hits', '[Other] Ribose site', '[Other] Phosphate site']

>  <reference>  (427) 
None

>  <exports>  (427) 
['/opt/xchem-fragalysis-2/maxwin/CHIKV_HIPPO/web_resources/hit_poses.sdf', '/opt/xchem-fragalysis-2/maxwin/CHIKV_HIPPO/web/web_resources/hit_poses.sdf', '/opt/xchem-fragalysis-2/maxwin/CHIKV_HIPPO/web2/web_resources/hit_poses.sdf']

>  <observation_longname>  (427) 
nan

>  <ConformerSites alias>  (427) 
nan

>  <CanonSites alias>  (427) 
nan

>  <CrystalformSites alias>  (427) 
nan

>  <Quatassemblies alias>  (427) 
nan

>  <Crystalforms alias>  (427) 
nan

$$$$
6w8y-c
     RDKit          3D

 10 10  0  0  0  0  0  0  0  0999 V2000
    4.5130    3.3700   12.2310 O   0  0  0  0  0  0  0  0  0  0  0  0
    5.0450    4.0080   13.1750 C   0  0  0  0  0  0  0  0  0  0  0  0
    4.3870    4.9840   13.8560 N   0  0  0  0  0  0  0  0  0  0  0  0
    4.9720    5.6810   14.8780 C   0  0  0  0  0  0  0  0  0  0  0  0
    6.2960    5.4040   15.2080 C   0  0  0  0  0  0  0  0  0  0  0  0
    6.3040    3.7060   13.4980 N   0  0  0  0  0  0  0  0  0  0  0  0
    6.9430    4.3910   14.4870 C   0  0  0  0  0  0  0  0  0  0  0  0
    8.3660    3.9970   14.8080 C   0  0  0  0  0  0  0  0  0  0  0  0
    8.7010    3.8310   15.9900 O   0  0  0  0  0  0  0  0  0  0  0  0
    9.1710    3.8330   13.8710 O   0  0  0  0  0  0  0  0  0  0  0  0
 10  8  2  0
  5  4  1  0
  5  7  2  0
  8  7  1  0
  8  9  1  0
  4  3  2  0
  7  6  1  0
  3  2  1  0
  6  2  1  0
  2  1  2  0
M  END
>  <id>  (428) 
6216

>  <inchikey>  (428) 
OEPPJKDEBZBNNG-UHFFFAOYSA-N

>  <alias>  (428) 
6w8y-c

>  <smiles>  (428) 
O=C(O)c1ccnc(=O)[nH]1

>  <path>  (428) 
/opt/xchem-fragalysis-2/maxwin/CHIKV_Mac_20240920/aligned_files/6w8y-c/6w8y-c_hippo.pdb

>  <compound>  (428) 
OEPPJKDEBZBNNG-UHFFFAOYSA-N

>  <target>  (428) 
CHIKV_Mac

>  <tags>  (428) 
['[Other] New', 'hits', '[Other] Ribose site', '[Other] Phosphate site']

>  <reference>  (428) 
None

>  <exports>  (428) 
['/opt/xchem-fragalysis-2/maxwin/CHIKV_HIPPO/web_resources/hit_poses.sdf', '/opt/xchem-fragalysis-2/maxwin/CHIKV_HIPPO/web/web_resources/hit_poses.sdf', '/opt/xchem-fragalysis-2/maxwin/CHIKV_HIPPO/web2/web_resources/hit_poses.sdf']

>  <observation_longname>  (428) 
nan

>  <ConformerSites alias>  (428) 
nan

>  <CanonSites alias>  (428) 
nan

>  <CrystalformSites alias>  (428) 
nan

>  <Quatassemblies alias>  (428) 
nan

>  <Crystalforms alias>  (428) 
nan

$$$$
6w7h-a
     RDKit          3D

 11 11  0  0  0  0  0  0  0  0999 V2000
    4.6510    3.9540   12.4800 O   0  0  0  0  0  0  0  0  0  0  0  0
    5.2700    4.4300   13.4700 C   0  0  0  0  0  0  0  0  0  0  0  0
    6.5140    3.9550   13.7430 N   0  0  0  0  0  0  0  0  0  0  0  0
    4.7040    5.4050   14.2070 N   0  0  0  0  0  0  0  0  0  0  0  0
    5.3960    5.9630   15.2280 C   0  0  0  0  0  0  0  0  0  0  0  0
    4.8360    7.0870   16.0220 C   0  0  0  0  0  0  0  0  0  0  0  0
    6.6580    5.5020   15.5260 C   0  0  0  0  0  0  0  0  0  0  0  0
    7.1900    4.4840   14.7660 C   0  0  0  0  0  0  0  0  0  0  0  0
    8.5580    3.9290   15.0270 C   0  0  0  0  0  0  0  0  0  0  0  0
    9.4450    4.2220   14.2480 O   0  0  0  0  0  0  0  0  0  0  0  0
    8.8170    3.1620   15.9580 O   0  0  0  0  0  0  0  0  0  0  0  0
 11  9  2  0
  6  5  1  0
  7  5  1  0
  7  8  1  0
  5  4  2  0
  9  8  1  0
  9 10  1  0
  8  3  2  0
  4  2  1  0
  3  2  1  0
  2  1  2  0
M  END
>  <id>  (429) 
6217

>  <inchikey>  (429) 
ZTBNONONIFESFB-UHFFFAOYSA-N

>  <alias>  (429) 
6w7h-a

>  <smiles>  (429) 
CC1=NC(=O)N=C(C(=O)O)C1

>  <path>  (429) 
/opt/xchem-fragalysis-2/maxwin/CHIKV_Mac_20240920/aligned_files/6w7h-a/6w7h-a_hippo.pdb

>  <compound>  (429) 
ZTBNONONIFESFB-UHFFFAOYSA-N

>  <target>  (429) 
CHIKV_Mac

>  <tags>  (429) 
['hits', '[Other] external', '[Other] Ribose site', '[Other] Phosphate site']

>  <reference>  (429) 
None

>  <exports>  (429) 
['/opt/xchem-fragalysis-2/maxwin/CHIKV_HIPPO/web_resources/hit_poses.sdf', '/opt/xchem-fragalysis-2/maxwin/CHIKV_HIPPO/web/web_resources/hit_poses.sdf', '/opt/xchem-fragalysis-2/maxwin/CHIKV_HIPPO/web2/web_resources/hit_poses.sdf']

>  <observation_longname>  (429) 
6w7h_A_201_1_CHIKV_MacB-x2352+C+401+1

>  <ConformerSites alias>  (429) 
1a - c2352/C/401

>  <CanonSites alias>  (429) 
1 - c2352/C/401/1

>  <CrystalformSites alias>  (429) 
F1a - c0270/A/304

>  <Quatassemblies alias>  (429) 
A1 - monomer

>  <Crystalforms alias>  (429) 
F1 - P31-4fold-NCS

$$$$
6w7h-b
     RDKit          3D

 11 11  0  0  0  0  0  0  0  0999 V2000
    4.3650    3.7980   12.2520 O   0  0  0  0  0  0  0  0  0  0  0  0
    5.0430    4.2200   13.2150 C   0  0  0  0  0  0  0  0  0  0  0  0
    6.3020    3.7870   13.4290 N   0  0  0  0  0  0  0  0  0  0  0  0
    4.4990    5.1890   14.0060 N   0  0  0  0  0  0  0  0  0  0  0  0
    5.2110    5.6810   15.0770 C   0  0  0  0  0  0  0  0  0  0  0  0
    4.6240    6.7250   16.0010 C   0  0  0  0  0  0  0  0  0  0  0  0
    6.4870    5.2390   15.2990 C   0  0  0  0  0  0  0  0  0  0  0  0
    7.0320    4.2590   14.4610 C   0  0  0  0  0  0  0  0  0  0  0  0
    8.4320    3.8310   14.7250 C   0  0  0  0  0  0  0  0  0  0  0  0
    9.3060    3.8680   13.8150 O   0  0  0  0  0  0  0  0  0  0  0  0
    8.7430    3.4310   15.8740 O   0  0  0  0  0  0  0  0  0  0  0  0
 11  9  2  0
  6  5  1  0
  7  5  1  0
  7  8  1  0
  5  4  2  0
  9  8  1  0
  9 10  1  0
  8  3  2  0
  4  2  1  0
  3  2  1  0
  2  1  2  0
M  END
>  <id>  (430) 
6218

>  <inchikey>  (430) 
ZTBNONONIFESFB-UHFFFAOYSA-N

>  <alias>  (430) 
6w7h-b

>  <smiles>  (430) 
CC1=NC(=O)N=C(C(=O)O)C1

>  <path>  (430) 
/opt/xchem-fragalysis-2/maxwin/CHIKV_Mac_20240920/aligned_files/6w7h-b/6w7h-b_hippo.pdb

>  <compound>  (430) 
ZTBNONONIFESFB-UHFFFAOYSA-N

>  <target>  (430) 
CHIKV_Mac

>  <tags>  (430) 
['[Other] New', 'hits', '[Other] Ribose site', '[Other] Phosphate site']

>  <reference>  (430) 
None

>  <exports>  (430) 
['/opt/xchem-fragalysis-2/maxwin/CHIKV_HIPPO/web_resources/hit_poses.sdf', '/opt/xchem-fragalysis-2/maxwin/CHIKV_HIPPO/web/web_resources/hit_poses.sdf', '/opt/xchem-fragalysis-2/maxwin/CHIKV_HIPPO/web2/web_resources/hit_poses.sdf']

>  <observation_longname>  (430) 
nan

>  <ConformerSites alias>  (430) 
nan

>  <CanonSites alias>  (430) 
nan

>  <CrystalformSites alias>  (430) 
nan

>  <Quatassemblies alias>  (430) 
nan

>  <Crystalforms alias>  (430) 
nan

$$$$
6w7h-c
     RDKit          3D

 11 11  0  0  0  0  0  0  0  0999 V2000
    4.5140    3.8400   12.3760 O   0  0  0  0  0  0  0  0  0  0  0  0
    5.1670    4.3600   13.3470 C   0  0  0  0  0  0  0  0  0  0  0  0
    6.4470    3.9560   13.6440 N   0  0  0  0  0  0  0  0  0  0  0  0
    4.6160    5.3550   14.0780 N   0  0  0  0  0  0  0  0  0  0  0  0
    5.2620    5.9130   15.1340 C   0  0  0  0  0  0  0  0  0  0  0  0
    4.6260    6.9810   15.9480 C   0  0  0  0  0  0  0  0  0  0  0  0
    6.5620    5.4940   15.4470 C   0  0  0  0  0  0  0  0  0  0  0  0
    7.1330    4.4900   14.6730 C   0  0  0  0  0  0  0  0  0  0  0  0
    8.5260    3.9530   14.9620 C   0  0  0  0  0  0  0  0  0  0  0  0
    8.8340    3.4520   16.0770 O   0  0  0  0  0  0  0  0  0  0  0  0
    9.3230    3.9560   14.0180 O   0  0  0  0  0  0  0  0  0  0  0  0
 11  9  2  0
  6  5  1  0
  7  5  1  0
  7  8  1  0
  5  4  2  0
  9  8  1  0
  9 10  1  0
  8  3  2  0
  4  2  1  0
  3  2  1  0
  2  1  2  0
M  END
>  <id>  (431) 
6219

>  <inchikey>  (431) 
ZTBNONONIFESFB-UHFFFAOYSA-N

>  <alias>  (431) 
6w7h-c

>  <smiles>  (431) 
CC1=NC(=O)N=C(C(=O)O)C1

>  <path>  (431) 
/opt/xchem-fragalysis-2/maxwin/CHIKV_Mac_20240920/aligned_files/6w7h-c/6w7h-c_hippo.pdb

>  <compound>  (431) 
ZTBNONONIFESFB-UHFFFAOYSA-N

>  <target>  (431) 
CHIKV_Mac

>  <tags>  (431) 
['[Other] New', 'hits', '[Other] Ribose site', '[Other] Phosphate site']

>  <reference>  (431) 
None

>  <exports>  (431) 
['/opt/xchem-fragalysis-2/maxwin/CHIKV_HIPPO/web_resources/hit_poses.sdf', '/opt/xchem-fragalysis-2/maxwin/CHIKV_HIPPO/web/web_resources/hit_poses.sdf', '/opt/xchem-fragalysis-2/maxwin/CHIKV_HIPPO/web2/web_resources/hit_poses.sdf']

>  <observation_longname>  (431) 
nan

>  <ConformerSites alias>  (431) 
nan

>  <CanonSites alias>  (431) 
nan

>  <CrystalformSites alias>  (431) 
nan

>  <Quatassemblies alias>  (431) 
nan

>  <Crystalforms alias>  (431) 
nan

$$$$
6w7h-d
     RDKit          3D

 11 11  0  0  0  0  0  0  0  0999 V2000
    4.4870    3.9420   12.5480 O   0  0  0  0  0  0  0  0  0  0  0  0
    5.1050    4.4680   13.5210 C   0  0  0  0  0  0  0  0  0  0  0  0
    6.3640    4.0550   13.7710 N   0  0  0  0  0  0  0  0  0  0  0  0
    4.5330    5.4510   14.2400 N   0  0  0  0  0  0  0  0  0  0  0  0
    5.1790    6.0070   15.2990 C   0  0  0  0  0  0  0  0  0  0  0  0
    4.4330    7.0540   16.0680 C   0  0  0  0  0  0  0  0  0  0  0  0
    6.4830    5.5900   15.6170 C   0  0  0  0  0  0  0  0  0  0  0  0
    7.0630    4.5770   14.8150 C   0  0  0  0  0  0  0  0  0  0  0  0
    8.4320    3.9910   15.0150 C   0  0  0  0  0  0  0  0  0  0  0  0
    9.2210    3.7770   14.0670 O   0  0  0  0  0  0  0  0  0  0  0  0
    8.7710    3.6640   16.1570 O   0  0  0  0  0  0  0  0  0  0  0  0
 11  9  2  0
  6  5  1  0
  7  5  1  0
  7  8  1  0
  5  4  2  0
  9  8  1  0
  9 10  1  0
  8  3  2  0
  4  2  1  0
  3  2  1  0
  2  1  2  0
M  END
>  <id>  (432) 
6220

>  <inchikey>  (432) 
ZTBNONONIFESFB-UHFFFAOYSA-N

>  <alias>  (432) 
6w7h-d

>  <smiles>  (432) 
CC1=NC(=O)N=C(C(=O)O)C1

>  <path>  (432) 
/opt/xchem-fragalysis-2/maxwin/CHIKV_Mac_20240920/aligned_files/6w7h-d/6w7h-d_hippo.pdb

>  <compound>  (432) 
ZTBNONONIFESFB-UHFFFAOYSA-N

>  <target>  (432) 
CHIKV_Mac

>  <tags>  (432) 
['[Other] New', 'hits', '[Other] Ribose site', '[Other] Phosphate site']

>  <reference>  (432) 
None

>  <exports>  (432) 
['/opt/xchem-fragalysis-2/maxwin/CHIKV_HIPPO/web_resources/hit_poses.sdf', '/opt/xchem-fragalysis-2/maxwin/CHIKV_HIPPO/web/web_resources/hit_poses.sdf', '/opt/xchem-fragalysis-2/maxwin/CHIKV_HIPPO/web2/web_resources/hit_poses.sdf']

>  <observation_longname>  (432) 
nan

>  <ConformerSites alias>  (432) 
nan

>  <CanonSites alias>  (432) 
nan

>  <CrystalformSites alias>  (432) 
nan

>  <Quatassemblies alias>  (432) 
nan

>  <Crystalforms alias>  (432) 
nan

$$$$
6vuq-a
     RDKit          3D

 36 39  0  0  0  0  0  0  0  0999 V2000
   14.8470   11.0660   10.1380 N   0  0  0  0  0  0  0  0  0  0  0  0
   15.0930    9.8000    9.7700 C   0  0  0  0  0  0  0  0  0  0  0  0
   14.9510    8.6790   10.4740 N   0  0  0  0  0  0  0  0  0  0  0  0
   14.5220    8.9510   11.7180 C   0  0  0  0  0  0  0  0  0  0  0  0
   14.2490   10.1920   12.2470 C   0  0  0  0  0  0  0  0  0  0  0  0
   14.4300   11.3070   11.4040 C   0  0  0  0  0  0  0  0  0  0  0  0
   14.1850   12.5600   11.7730 N   0  0  0  0  0  0  0  0  0  0  0  0
   13.8250   10.0690   13.5630 N   0  0  0  0  0  0  0  0  0  0  0  0
   13.8450    8.7770   13.8010 C   0  0  0  0  0  0  0  0  0  0  0  0
   14.2820    8.0480   12.7180 N   0  0  0  0  0  0  0  0  0  0  0  0
   14.3850    6.5900   12.5750 C   0  0  1  0  0  0  0  0  0  0  0  0
   14.3060    5.7730   13.8610 C   0  0  2  0  0  0  0  0  0  0  0  0
   15.5960    5.5510   14.3870 O   0  0  0  0  0  0  0  0  0  0  0  0
   13.6410    4.4790   13.3760 C   0  0  2  0  0  0  0  0  0  0  0  0
   14.5840    3.5670   12.8310 O   0  0  0  0  0  0  0  0  0  0  0  0
   13.2820    6.2030   11.7870 O   0  0  0  0  0  0  0  0  0  0  0  0
   12.6810    4.9830   12.2880 C   0  0  2  0  0  0  0  0  0  0  0  0
   11.2670    5.2970   12.7080 C   0  0  0  0  0  0  0  0  0  0  0  0
   11.2300    5.5080   14.1350 O   0  0  0  0  0  0  0  0  0  0  0  0
   10.0290    6.3030   14.8140 P   0  0  2  0  0  0  0  0  0  0  0  0
    9.9340    7.6750   14.2180 O   0  0  0  0  0  0  0  0  0  0  0  0
   10.1960    6.2030   16.2970 O   0  0  0  0  0  0  0  0  0  0  0  0
    8.7300    5.4950   14.3450 O   0  0  0  0  0  0  0  0  0  0  0  0
    7.8430    4.2740   14.9020 P   0  0  1  0  0  0  0  0  0  0  0  0
    6.8930    3.8800   13.8220 O   0  0  0  0  0  0  0  0  0  0  0  0
    8.7670    3.2500   15.4840 O   0  0  0  0  0  0  0  0  0  0  0  0
    7.0410    4.9430   16.1000 O   0  0  0  0  0  0  0  0  0  0  0  0
    5.9490    5.8270   15.8000 C   0  0  0  0  0  0  0  0  0  0  0  0
    6.8740    7.4890   17.2640 O   0  0  0  0  0  0  0  0  0  0  0  0
    7.4060    9.7120   17.1830 O   0  0  0  0  0  0  0  0  0  0  0  0
    6.4790    8.8020   17.6180 C   0  0  1  0  0  0  0  0  0  0  0  0
    4.3340   10.0190   17.3900 O   0  0  0  0  0  0  0  0  0  0  0  0
    5.1860    9.0390   16.8410 C   0  0  2  0  0  0  0  0  0  0  0  0
    3.6010    7.5160   17.9020 O   0  0  0  0  0  0  0  0  0  0  0  0
    4.5170    7.6720   16.8300 C   0  0  2  0  0  0  0  0  0  0  0  0
    5.6920    6.7000   16.9960 C   0  0  1  0  0  0  0  0  0  0  0  0
  1  2  2  0
  1  6  1  0
  2  3  1  0
  3  4  2  0
  4  5  1  0
  4 10  1  0
  5  6  2  0
  5  8  1  0
  6  7  1  0
  8  9  2  0
  9 10  1  0
 11 10  1  1
 11 12  1  0
 11 16  1  0
 12 13  1  6
 12 14  1  0
 14 15  1  6
 14 17  1  0
 16 17  1  0
 17 18  1  1
 18 19  1  0
 19 20  1  0
 20 21  2  0
 20 22  1  1
 20 23  1  0
 23 24  1  0
 24 25  2  0
 24 26  1  1
 24 27  1  0
 27 28  1  0
 36 28  1  6
 29 31  1  0
 29 36  1  0
 31 30  1  6
 31 33  1  0
 33 32  1  1
 33 35  1  0
 35 34  1  1
 35 36  1  0
M  END
>  <id>  (433) 
6221

>  <inchikey>  (433) 
SRNWOUGRCWSEMX-KEOHHSTQSA-N

>  <alias>  (433) 
6vuq-a

>  <smiles>  (433) 
Nc1ncnc2c1ncn2[C@@H]1O[C@H](CO[P@](=O)(O)O[P@@](=O)(O)OC[C@H]2O[C@@H](O)[C@H](O)[C@@H]2O)[C@@H](O)[C@H]1O

>  <path>  (433) 
/opt/xchem-fragalysis-2/maxwin/CHIKV_Mac_20240920/aligned_files/6vuq-a/6vuq-a_hippo.pdb

>  <compound>  (433) 
SRNWOUGRCWSEMX-UHFFFAOYSA-N

>  <target>  (433) 
CHIKV_Mac

>  <tags>  (433) 
['hits', '[Other] external', '[Other] ADPr']

>  <reference>  (433) 
None

>  <exports>  (433) 
['/opt/xchem-fragalysis-2/maxwin/CHIKV_HIPPO/web_resources/hit_poses.sdf', '/opt/xchem-fragalysis-2/maxwin/CHIKV_HIPPO/web/web_resources/hit_poses.sdf', '/opt/xchem-fragalysis-2/maxwin/CHIKV_HIPPO/web2/web_resources/hit_poses.sdf']

>  <observation_longname>  (433) 
nan

>  <ConformerSites alias>  (433) 
nan

>  <CanonSites alias>  (433) 
nan

>  <CrystalformSites alias>  (433) 
nan

>  <Quatassemblies alias>  (433) 
nan

>  <Crystalforms alias>  (433) 
nan

$$$$
6vuq-b
     RDKit          3D

 36 39  0  0  0  0  0  0  0  0999 V2000
   14.9470   11.0590   10.1030 N   0  0  0  0  0  0  0  0  0  0  0  0
   15.1550    9.7840    9.7390 C   0  0  0  0  0  0  0  0  0  0  0  0
   15.0000    8.6700   10.4510 N   0  0  0  0  0  0  0  0  0  0  0  0
   14.5790    8.9550   11.6940 C   0  0  0  0  0  0  0  0  0  0  0  0
   14.3350   10.2070   12.2160 C   0  0  0  0  0  0  0  0  0  0  0  0
   14.5410   11.3120   11.3700 C   0  0  0  0  0  0  0  0  0  0  0  0
   14.3070   12.5700   11.7310 N   0  0  0  0  0  0  0  0  0  0  0  0
   13.9150   10.1020   13.5370 N   0  0  0  0  0  0  0  0  0  0  0  0
   13.9030    8.8110   13.7810 C   0  0  0  0  0  0  0  0  0  0  0  0
   14.3130    8.0620   12.6970 N   0  0  0  0  0  0  0  0  0  0  0  0
   14.3640    6.6080   12.5610 C   0  0  1  0  0  0  0  0  0  0  0  0
   14.3270    5.8120   13.8610 C   0  0  2  0  0  0  0  0  0  0  0  0
   15.6200    5.6270   14.3960 O   0  0  0  0  0  0  0  0  0  0  0  0
   13.6970    4.4980   13.3820 C   0  0  2  0  0  0  0  0  0  0  0  0
   14.6470    3.6260   12.7810 O   0  0  0  0  0  0  0  0  0  0  0  0
   13.1990    6.2390   11.8520 O   0  0  0  0  0  0  0  0  0  0  0  0
   12.6750    4.9750   12.3410 C   0  0  2  0  0  0  0  0  0  0  0  0
   11.2650    5.1800   12.8430 C   0  0  0  0  0  0  0  0  0  0  0  0
   11.3180    5.6260   14.2200 O   0  0  0  0  0  0  0  0  0  0  0  0
   10.0990    6.3950   14.9220 P   0  0  2  0  0  0  0  0  0  0  0  0
    9.9710    7.7700   14.3560 O   0  0  0  0  0  0  0  0  0  0  0  0
   10.2490    6.2590   16.3990 O   0  0  0  0  0  0  0  0  0  0  0  0
    8.8410    5.5480   14.4040 O   0  0  0  0  0  0  0  0  0  0  0  0
    7.9610    4.3300   14.9600 P   0  0  1  0  0  0  0  0  0  0  0  0
    6.9950    3.9620   13.8860 O   0  0  0  0  0  0  0  0  0  0  0  0
    8.8650    3.2790   15.5200 O   0  0  0  0  0  0  0  0  0  0  0  0
    7.1750    5.0090   16.1650 O   0  0  0  0  0  0  0  0  0  0  0  0
    6.0830    5.8930   15.8530 C   0  0  0  0  0  0  0  0  0  0  0  0
    6.8140    7.4500   17.5220 O   0  0  0  0  0  0  0  0  0  0  0  0
    7.2390    9.6990   17.6830 O   0  0  0  0  0  0  0  0  0  0  0  0
    6.3140    8.7220   17.9190 C   0  0  1  0  0  0  0  0  0  0  0  0
    4.1890    9.9170   17.4520 O   0  0  0  0  0  0  0  0  0  0  0  0
    5.1030    8.9380   17.0120 C   0  0  2  0  0  0  0  0  0  0  0  0
    3.6170    7.3530   18.1090 O   0  0  0  0  0  0  0  0  0  0  0  0
    4.4800    7.5470   16.9970 C   0  0  2  0  0  0  0  0  0  0  0  0
    5.7010    6.6250   17.1130 C   0  0  1  0  0  0  0  0  0  0  0  0
  1  2  2  0
  1  6  1  0
  2  3  1  0
  3  4  2  0
  4  5  1  0
  4 10  1  0
  5  6  2  0
  5  8  1  0
  6  7  1  0
  8  9  2  0
  9 10  1  0
 11 10  1  1
 11 12  1  0
 11 16  1  0
 12 13  1  6
 12 14  1  0
 14 15  1  6
 14 17  1  0
 16 17  1  0
 17 18  1  1
 18 19  1  0
 19 20  1  0
 20 21  2  0
 20 22  1  1
 20 23  1  0
 23 24  1  0
 24 25  2  0
 24 26  1  1
 24 27  1  0
 27 28  1  0
 36 28  1  6
 29 31  1  0
 29 36  1  0
 31 30  1  6
 31 33  1  0
 33 32  1  1
 33 35  1  0
 35 34  1  1
 35 36  1  0
M  END
>  <id>  (434) 
6222

>  <inchikey>  (434) 
SRNWOUGRCWSEMX-KEOHHSTQSA-N

>  <alias>  (434) 
6vuq-b

>  <smiles>  (434) 
Nc1ncnc2c1ncn2[C@@H]1O[C@H](CO[P@](=O)(O)O[P@@](=O)(O)OC[C@H]2O[C@@H](O)[C@H](O)[C@@H]2O)[C@@H](O)[C@H]1O

>  <path>  (434) 
/opt/xchem-fragalysis-2/maxwin/CHIKV_Mac_20240920/aligned_files/6vuq-b/6vuq-b_hippo.pdb

>  <compound>  (434) 
SRNWOUGRCWSEMX-UHFFFAOYSA-N

>  <target>  (434) 
CHIKV_Mac

>  <tags>  (434) 
['[Other] New', 'hits', '[Other] external', '[Other] ADPr']

>  <reference>  (434) 
None

>  <exports>  (434) 
['/opt/xchem-fragalysis-2/maxwin/CHIKV_HIPPO/web_resources/hit_poses.sdf', '/opt/xchem-fragalysis-2/maxwin/CHIKV_HIPPO/web/web_resources/hit_poses.sdf', '/opt/xchem-fragalysis-2/maxwin/CHIKV_HIPPO/web2/web_resources/hit_poses.sdf']

>  <observation_longname>  (434) 
nan

>  <ConformerSites alias>  (434) 
nan

>  <CanonSites alias>  (434) 
nan

>  <CrystalformSites alias>  (434) 
nan

>  <Quatassemblies alias>  (434) 
nan

>  <Crystalforms alias>  (434) 
nan

$$$$
6vuq-c
     RDKit          3D

 36 39  0  0  0  0  0  0  0  0999 V2000
   14.9300   11.1260   10.1150 N   0  0  0  0  0  0  0  0  0  0  0  0
   15.1970    9.8630    9.7540 C   0  0  0  0  0  0  0  0  0  0  0  0
   15.0530    8.7400   10.4520 N   0  0  0  0  0  0  0  0  0  0  0  0
   14.5930    9.0060   11.6880 C   0  0  0  0  0  0  0  0  0  0  0  0
   14.3100   10.2450   12.2140 C   0  0  0  0  0  0  0  0  0  0  0  0
   14.5060   11.3610   11.3810 C   0  0  0  0  0  0  0  0  0  0  0  0
   14.2170   12.6050   11.7550 N   0  0  0  0  0  0  0  0  0  0  0  0
   13.8690   10.1280   13.5240 N   0  0  0  0  0  0  0  0  0  0  0  0
   13.8620    8.8370   13.7580 C   0  0  0  0  0  0  0  0  0  0  0  0
   14.3260    8.1070   12.6890 N   0  0  0  0  0  0  0  0  0  0  0  0
   14.3600    6.6600   12.5580 C   0  0  1  0  0  0  0  0  0  0  0  0
   14.3110    5.8600   13.8550 C   0  0  2  0  0  0  0  0  0  0  0  0
   15.6070    5.7230   14.4010 O   0  0  0  0  0  0  0  0  0  0  0  0
   13.6970    4.5430   13.3690 C   0  0  2  0  0  0  0  0  0  0  0  0
   14.6300    3.6470   12.7730 O   0  0  0  0  0  0  0  0  0  0  0  0
   13.1850    6.3040   11.8570 O   0  0  0  0  0  0  0  0  0  0  0  0
   12.6810    5.0230   12.3230 C   0  0  2  0  0  0  0  0  0  0  0  0
   11.2630    5.1970   12.8090 C   0  0  0  0  0  0  0  0  0  0  0  0
   11.3010    5.6480   14.1790 O   0  0  0  0  0  0  0  0  0  0  0  0
   10.0570    6.3770   14.8710 P   0  0  2  0  0  0  0  0  0  0  0  0
    9.9320    7.7590   14.3250 O   0  0  0  0  0  0  0  0  0  0  0  0
   10.2170    6.2220   16.3490 O   0  0  0  0  0  0  0  0  0  0  0  0
    8.8010    5.5310   14.3690 O   0  0  0  0  0  0  0  0  0  0  0  0
    7.9420    4.3050   14.9380 P   0  0  1  0  0  0  0  0  0  0  0  0
    6.9990    3.8810   13.8580 O   0  0  0  0  0  0  0  0  0  0  0  0
    8.8600    3.2770   15.5160 O   0  0  0  0  0  0  0  0  0  0  0  0
    7.1290    4.9700   16.1380 O   0  0  0  0  0  0  0  0  0  0  0  0
    6.0670    5.9000   15.8300 C   0  0  0  0  0  0  0  0  0  0  0  0
    6.8800    7.5400   17.3760 O   0  0  0  0  0  0  0  0  0  0  0  0
    7.2680    9.7730   17.2010 O   0  0  0  0  0  0  0  0  0  0  0  0
    6.4170    8.8310   17.6970 C   0  0  1  0  0  0  0  0  0  0  0  0
    4.2220    9.9380   17.5080 O   0  0  0  0  0  0  0  0  0  0  0  0
    5.0850    8.9670   16.9620 C   0  0  2  0  0  0  0  0  0  0  0  0
    3.7290    7.3550   18.1940 O   0  0  0  0  0  0  0  0  0  0  0  0
    4.5060    7.5610   17.0230 C   0  0  2  0  0  0  0  0  0  0  0  0
    5.7580    6.6760   17.0820 C   0  0  1  0  0  0  0  0  0  0  0  0
  1  2  2  0
  1  6  1  0
  2  3  1  0
  3  4  2  0
  4  5  1  0
  4 10  1  0
  5  6  2  0
  5  8  1  0
  6  7  1  0
  8  9  2  0
  9 10  1  0
 11 10  1  1
 11 12  1  0
 11 16  1  0
 12 13  1  6
 12 14  1  0
 14 15  1  6
 14 17  1  0
 16 17  1  0
 17 18  1  1
 18 19  1  0
 19 20  1  0
 20 21  2  0
 20 22  1  1
 20 23  1  0
 23 24  1  0
 24 25  2  0
 24 26  1  1
 24 27  1  0
 27 28  1  0
 36 28  1  6
 29 31  1  0
 29 36  1  0
 31 30  1  6
 31 33  1  0
 33 32  1  1
 33 35  1  0
 35 34  1  1
 35 36  1  0
M  END
>  <id>  (435) 
6223

>  <inchikey>  (435) 
SRNWOUGRCWSEMX-KEOHHSTQSA-N

>  <alias>  (435) 
6vuq-c

>  <smiles>  (435) 
Nc1ncnc2c1ncn2[C@@H]1O[C@H](CO[P@](=O)(O)O[P@@](=O)(O)OC[C@H]2O[C@@H](O)[C@H](O)[C@@H]2O)[C@@H](O)[C@H]1O

>  <path>  (435) 
/opt/xchem-fragalysis-2/maxwin/CHIKV_Mac_20240920/aligned_files/6vuq-c/6vuq-c_hippo.pdb

>  <compound>  (435) 
SRNWOUGRCWSEMX-UHFFFAOYSA-N

>  <target>  (435) 
CHIKV_Mac

>  <tags>  (435) 
['[Other] New', 'hits', '[Other] external', '[Other] ADPr']

>  <reference>  (435) 
None

>  <exports>  (435) 
['/opt/xchem-fragalysis-2/maxwin/CHIKV_HIPPO/web_resources/hit_poses.sdf', '/opt/xchem-fragalysis-2/maxwin/CHIKV_HIPPO/web/web_resources/hit_poses.sdf', '/opt/xchem-fragalysis-2/maxwin/CHIKV_HIPPO/web2/web_resources/hit_poses.sdf']

>  <observation_longname>  (435) 
nan

>  <ConformerSites alias>  (435) 
nan

>  <CanonSites alias>  (435) 
nan

>  <CrystalformSites alias>  (435) 
nan

>  <Quatassemblies alias>  (435) 
nan

>  <Crystalforms alias>  (435) 
nan

$$$$
6vuq-d
     RDKit          3D

 36 39  0  0  0  0  0  0  0  0999 V2000
   14.8150   11.0700   10.1000 N   0  0  0  0  0  0  0  0  0  0  0  0
   15.0360    9.8000    9.7360 C   0  0  0  0  0  0  0  0  0  0  0  0
   14.9070    8.6830   10.4510 N   0  0  0  0  0  0  0  0  0  0  0  0
   14.5040    8.9670   11.7000 C   0  0  0  0  0  0  0  0  0  0  0  0
   14.2540   10.2160   12.2270 C   0  0  0  0  0  0  0  0  0  0  0  0
   14.4340   11.3240   11.3760 C   0  0  0  0  0  0  0  0  0  0  0  0
   14.1920   12.5820   11.7350 N   0  0  0  0  0  0  0  0  0  0  0  0
   13.8590   10.1020   13.5520 N   0  0  0  0  0  0  0  0  0  0  0  0
   13.8690    8.8090   13.7950 C   0  0  0  0  0  0  0  0  0  0  0  0
   14.2690    8.0680   12.7070 N   0  0  0  0  0  0  0  0  0  0  0  0
   14.3430    6.6110   12.5600 C   0  0  1  0  0  0  0  0  0  0  0  0
   14.3150    5.8010   13.8520 C   0  0  2  0  0  0  0  0  0  0  0  0
   15.6210    5.5990   14.3470 O   0  0  0  0  0  0  0  0  0  0  0  0
   13.6700    4.4930   13.3830 C   0  0  2  0  0  0  0  0  0  0  0  0
   14.6070    3.6080   12.7850 O   0  0  0  0  0  0  0  0  0  0  0  0
   13.1990    6.2200   11.8270 O   0  0  0  0  0  0  0  0  0  0  0  0
   12.6720    4.9610   12.3160 C   0  0  2  0  0  0  0  0  0  0  0  0
   11.2470    5.1630   12.7720 C   0  0  0  0  0  0  0  0  0  0  0  0
   11.2560    5.5430   14.1630 O   0  0  0  0  0  0  0  0  0  0  0  0
   10.0360    6.3180   14.8510 P   0  0  2  0  0  0  0  0  0  0  0  0
    9.8640    7.6690   14.2350 O   0  0  0  0  0  0  0  0  0  0  0  0
   10.2060    6.2330   16.3330 O   0  0  0  0  0  0  0  0  0  0  0  0
    8.7760    5.4730   14.3440 O   0  0  0  0  0  0  0  0  0  0  0  0
    7.8820    4.2740   14.9180 P   0  0  1  0  0  0  0  0  0  0  0  0
    6.9450    3.8820   13.8260 O   0  0  0  0  0  0  0  0  0  0  0  0
    8.7650    3.2240   15.5140 O   0  0  0  0  0  0  0  0  0  0  0  0
    7.0870    4.9700   16.0980 O   0  0  0  0  0  0  0  0  0  0  0  0
    6.0410    5.8830   15.7520 C   0  0  0  0  0  0  0  0  0  0  0  0
    6.8450    7.5060   17.3350 O   0  0  0  0  0  0  0  0  0  0  0  0
    7.3240    9.7530   17.3180 O   0  0  0  0  0  0  0  0  0  0  0  0
    6.4080    8.8070   17.7090 C   0  0  1  0  0  0  0  0  0  0  0  0
    4.2020    9.9270   17.5330 O   0  0  0  0  0  0  0  0  0  0  0  0
    5.1140    9.0360   16.9240 C   0  0  2  0  0  0  0  0  0  0  0  0
    3.5450    7.3660   17.7810 O   0  0  0  0  0  0  0  0  0  0  0  0
    4.5100    7.6440   16.7790 C   0  0  2  0  0  0  0  0  0  0  0  0
    5.7020    6.6980   16.9690 C   0  0  1  0  0  0  0  0  0  0  0  0
  1  2  2  0
  1  6  1  0
  2  3  1  0
  3  4  2  0
  4  5  1  0
  4 10  1  0
  5  6  2  0
  5  8  1  0
  6  7  1  0
  8  9  2  0
  9 10  1  0
 11 10  1  1
 11 12  1  0
 11 16  1  0
 12 13  1  6
 12 14  1  0
 14 15  1  6
 14 17  1  0
 16 17  1  0
 17 18  1  1
 18 19  1  0
 19 20  1  0
 20 21  2  0
 20 22  1  1
 20 23  1  0
 23 24  1  0
 24 25  2  0
 24 26  1  1
 24 27  1  0
 27 28  1  0
 36 28  1  6
 29 31  1  0
 29 36  1  0
 31 30  1  6
 31 33  1  0
 33 32  1  1
 33 35  1  0
 35 34  1  1
 35 36  1  0
M  END
>  <id>  (436) 
6224

>  <inchikey>  (436) 
SRNWOUGRCWSEMX-KEOHHSTQSA-N

>  <alias>  (436) 
6vuq-d

>  <smiles>  (436) 
Nc1ncnc2c1ncn2[C@@H]1O[C@H](CO[P@](=O)(O)O[P@@](=O)(O)OC[C@H]2O[C@@H](O)[C@H](O)[C@@H]2O)[C@@H](O)[C@H]1O

>  <path>  (436) 
/opt/xchem-fragalysis-2/maxwin/CHIKV_Mac_20240920/aligned_files/6vuq-d/6vuq-d_hippo.pdb

>  <compound>  (436) 
SRNWOUGRCWSEMX-UHFFFAOYSA-N

>  <target>  (436) 
CHIKV_Mac

>  <tags>  (436) 
['[Other] New', 'hits', '[Other] external', '[Other] ADPr']

>  <reference>  (436) 
None

>  <exports>  (436) 
['/opt/xchem-fragalysis-2/maxwin/CHIKV_HIPPO/web_resources/hit_poses.sdf', '/opt/xchem-fragalysis-2/maxwin/CHIKV_HIPPO/web/web_resources/hit_poses.sdf', '/opt/xchem-fragalysis-2/maxwin/CHIKV_HIPPO/web2/web_resources/hit_poses.sdf']

>  <observation_longname>  (436) 
nan

>  <ConformerSites alias>  (436) 
nan

>  <CanonSites alias>  (436) 
nan

>  <CrystalformSites alias>  (436) 
nan

>  <Quatassemblies alias>  (436) 
nan

>  <Crystalforms alias>  (436) 
nan

$$$$
