ver_1.2
     RDKit          3D

 16 17  0  0  0  0  0  0  0  0999 V2000
   -4.3930    0.4499    0.4029 C   0  0  0  0  0  0  0  0  0  0  0  0
   -4.1933    0.0204   -1.0163 C   0  0  0  0  0  0  0  0  0  0  0  0
   -2.9043   -0.6926   -1.0717 C   0  0  0  0  0  0  0  0  0  0  0  0
   -1.8556    0.1411   -1.3372 N   0  0  0  0  0  0  0  0  0  0  0  0
   -0.7059   -0.5936   -1.3712 C   0  0  0  0  0  0  0  0  0  0  0  0
    0.6901   -0.1430   -1.6218 C   0  0  0  0  0  0  0  0  0  0  0  0
    1.3577    0.2259   -0.3671 N   0  0  0  0  0  0  0  0  0  0  0  0
    1.1683    1.5469   -0.0844 C   0  0  0  0  0  0  0  0  0  0  0  0
    1.7383    2.0727    1.0815 C   0  0  0  0  0  0  0  0  0  0  0  0
    2.4751    1.2526    1.9166 C   0  0  0  0  0  0  0  0  0  0  0  0
    3.2955    1.8649    3.5299 Br  0  0  0  0  0  0  0  0  0  0  0  0
    2.6341   -0.0869    1.5760 C   0  0  0  0  0  0  0  0  0  0  0  0
    2.0730   -0.5792    0.4397 C   0  0  0  0  0  0  0  0  0  0  0  0
    2.1186   -1.7337   -0.0031 O   0  0  0  0  0  0  0  0  0  0  0  0
   -1.1050   -1.8556   -1.1228 N   0  0  0  0  0  0  0  0  0  0  0  0
   -2.3935   -1.8900   -0.9510 O   0  0  0  0  0  0  0  0  0  0  0  0
  1  2  1  0
  2  3  1  0
  3  4  2  0
  4  5  1  0
  5  6  1  0
  6  7  1  0
  7  8  1  0
  8  9  2  0
  9 10  1  0
 10 11  1  0
 10 12  2  0
 12 13  1  0
 13 14  2  0
  5 15  2  0
 15 16  1  0
 16  3  1  0
 13  7  1  0
M  END
>  <ref_url>  (1) 
https://hippo.winokan.com

>  <submitter_name>  (1) 
Max Winokan

>  <submitter_email>  (1) 
max.winokan@diamond.ac.uk

>  <submitter_institution>  (1) 
DLS

>  <generation_date>  (1) 
2024-10-16

>  <method>  (1) 
HIPPO 1GFD8FK

>  <exports>  (1) 
exports

>  <smiles>  (1) 
smiles

>  <ref_mols>  (1) 
fragment inspirations

>  <original ID>  (1) 
original ID

$$$$
QQERROZMPKKQER-UHFFFAOYSA-N
     RDKit          3D

 16 17  0  0  0  0  0  0  0  0999 V2000
   13.9020    8.9383    9.0983 C   0  0  0  0  0  0  0  0  0  0  0  0
   14.6703    8.3405   10.2557 C   0  0  0  0  0  0  0  0  0  0  0  0
   14.4865    6.8874   10.4794 C   0  0  0  0  0  0  0  0  0  0  0  0
   15.2881    6.0778   11.1361 N   0  0  0  0  0  0  0  0  0  0  0  0
   14.7503    4.8440   10.8572 C   0  0  0  0  0  0  0  0  0  0  0  0
   15.4574    3.5660   11.1690 C   0  0  0  0  0  0  0  0  0  0  0  0
   16.1233    3.5930   12.4794 N   0  0  0  0  0  0  0  0  0  0  0  0
   15.5405    2.9290   13.5427 C   0  0  0  0  0  0  0  0  0  0  0  0
   16.1190    2.8649   14.7442 C   0  0  0  0  0  0  0  0  0  0  0  0
   17.3720    3.5306   14.9626 C   0  0  0  0  0  0  0  0  0  0  0  0
   18.1084    3.4454   16.6687 Br  0  0  0  0  0  0  0  0  0  0  0  0
   17.9714    4.1819   13.9599 C   0  0  0  0  0  0  0  0  0  0  0  0
   17.3781    4.1783   12.5981 C   0  0  0  0  0  0  0  0  0  0  0  0
   18.0274    4.6782   11.6786 O   0  0  0  0  0  0  0  0  0  0  0  0
   13.6192    4.8813   10.1346 N   0  0  0  0  0  0  0  0  0  0  0  0
   13.4358    6.2469    9.8918 O   0  0  0  0  0  0  0  0  0  0  0  0
  1  2  1  0
  2  3  1  0
  3  4  2  0
  4  5  1  0
  5  6  1  0
  6  7  1  0
  7  8  1  0
  8  9  2  0
  9 10  1  0
 10 11  1  0
 10 12  2  0
 12 13  1  0
 13 14  2  0
  5 15  2  0
 15 16  1  0
 16  3  1  0
 13  7  1  0
M  END
>  <ref_pdb>  (1) 
c0300a

>  <inchikey>  (1) 
QQERROZMPKKQER-UHFFFAOYSA-N

>  <original ID>  (1) 
QQERROZMPKKQER-UHFFFAOYSA-N

>  <generation_date>  (1) 
None

>  <alias>  (1) 
None

>  <tags>  (1) 
['Syndirella base']

>  <ref_mols>  (1) 
c0316a,c1091a

>  <ref_url>  (1) 
None

>  <submitter_name>  (1) 
None

>  <exports>  (1) 
['/opt/xchem-fragalysis-2/maxwin/CHIKV_HIPPO/hippo_prod/CHIKV_prod11_recipes/Recipe_1G8PPKY_poses.sdf', '/opt/xchem-fragalysis-2/maxwin/CHIKV_HIPPO/web/web_resources/pose_sdfs/modal_c1917_poses.sdf', '/opt/xchem-fragalysis-2/maxwin/CHIKV_HIPPO/hippo_prod/CHIKV_prod11_recipes/Recipe_1GERJCJ_poses.sdf']

>  <original SMILES>  (1) 
CCc1nc(Cn2ccc(Br)cc2=O)no1

>  <method>  (1) 
None

>  <submitter_email>  (1) 
None

>  <HIPPO ID>  (1) 
6251

$$$$
MMXSHBZOILNLPJ-UHFFFAOYSA-N
     RDKit          3D

 14 15  0  0  0  0  0  0  0  0999 V2000
   13.4627   13.2134   13.8958 C   0  0  0  0  0  0  0  0  0  0  0  0
   14.3058   13.0535   12.6365 C   0  0  0  0  0  0  0  0  0  0  0  0
   15.2394   14.2519   12.7030 C   0  0  0  0  0  0  0  0  0  0  0  0
   13.5096   13.1566   11.3159 C   0  0  0  0  0  0  0  0  0  0  0  0
   14.8463   11.6333   12.6262 C   0  0  0  0  0  0  0  0  0  0  0  0
   15.1265   10.9216   13.7809 C   0  0  0  0  0  0  0  0  0  0  0  0
   15.1493    9.5760   13.8151 N   0  0  0  0  0  0  0  0  0  0  0  0
   14.9543    8.9451   12.6464 C   0  0  0  0  0  0  0  0  0  0  0  0
   14.8571    7.5637   12.6234 C   0  0  0  0  0  0  0  0  0  0  0  0
   14.6444    6.8849   11.4266 C   0  0  0  0  0  0  0  0  0  0  0  0
   14.5565    7.5960   10.2357 C   0  0  0  0  0  0  0  0  0  0  0  0
   14.7094    8.9777   10.2306 C   0  0  0  0  0  0  0  0  0  0  0  0
   14.8668    9.6613   11.4274 C   0  0  0  0  0  0  0  0  0  0  0  0
   14.8664   10.9978   11.4272 N   0  0  0  0  0  0  0  0  0  0  0  0
  1  2  1  0
  2  3  1  0
  2  4  1  0
  2  5  1  0
  5  6  2  0
  6  7  1  0
  7  8  2  0
  8  9  1  0
  9 10  2  0
 10 11  1  0
 11 12  2  0
 12 13  1  0
 13 14  2  0
 14  5  1  0
 13  8  1  0
M  END
>  <ref_pdb>  (2) 
c0300a

>  <inchikey>  (2) 
MMXSHBZOILNLPJ-UHFFFAOYSA-N

>  <original ID>  (2) 
MMXSHBZOILNLPJ-UHFFFAOYSA-N

>  <generation_date>  (2) 
None

>  <alias>  (2) 
None

>  <tags>  (2) 
['Syndirella base']

>  <ref_mols>  (2) 
c0839a,c1299a

>  <ref_url>  (2) 
None

>  <submitter_name>  (2) 
None

>  <exports>  (2) 
['/opt/xchem-fragalysis-2/maxwin/CHIKV_HIPPO/hippo_prod/CHIKV_prod11_recipes/Recipe_1G8PPKY_poses.sdf', '/opt/xchem-fragalysis-2/maxwin/CHIKV_HIPPO/web/web_resources/pose_sdfs/modal_c1473_poses.sdf', '/opt/xchem-fragalysis-2/maxwin/CHIKV_HIPPO/hippo_prod/CHIKV_prod11_recipes/Recipe_1GERJCJ_poses.sdf']

>  <original SMILES>  (2) 
CC(C)(C)c1cnc2ccccc2n1

>  <method>  (2) 
None

>  <submitter_email>  (2) 
None

>  <HIPPO ID>  (2) 
6276

$$$$
DGASNXVGKHJXGC-UHFFFAOYSA-N
     RDKit          3D

 18 20  0  0  0  0  0  0  0  0999 V2000
   14.7841    9.7548    9.7323 C   0  0  0  0  0  0  0  0  0  0  0  0
   14.6592   10.3981   11.0202 N   0  0  0  0  0  0  0  0  0  0  0  0
   14.5044   11.7444   11.2343 C   0  0  0  0  0  0  0  0  0  0  0  0
   14.0753   12.6131   10.3082 N   0  0  0  0  0  0  0  0  0  0  0  0
   14.7656   12.0878   12.4576 N   0  0  0  0  0  0  0  0  0  0  0  0
   14.9443   10.9101   13.1132 C   0  0  0  0  0  0  0  0  0  0  0  0
   15.2667   10.7414   14.4568 C   0  0  0  0  0  0  0  0  0  0  0  0
   15.5118    9.4498   14.8943 C   0  0  0  0  0  0  0  0  0  0  0  0
   15.3512    8.3589   14.0533 C   0  0  0  0  0  0  0  0  0  0  0  0
   14.9109    8.4799   12.7306 C   0  0  0  0  0  0  0  0  0  0  0  0
   14.6766    7.3573   11.9523 N   0  0  0  0  0  0  0  0  0  0  0  0
   14.2493    6.1058   12.5867 C   0  0  0  0  0  0  0  0  0  0  0  0
   12.7939    6.0142   12.9477 C   0  0  0  0  0  0  0  0  0  0  0  0
   11.8175    5.3080   12.2752 C   0  0  0  0  0  0  0  0  0  0  0  0
   10.5408    5.4154   12.8926 C   0  0  0  0  0  0  0  0  0  0  0  0
   10.5781    6.2007   14.0212 C   0  0  0  0  0  0  0  0  0  0  0  0
   12.1548    6.7775   14.3449 S   0  0  0  0  0  0  0  0  0  0  0  0
   14.8138    9.8077   12.2624 C   0  0  0  0  0  0  0  0  0  0  0  0
  1  2  1  0
  2  3  1  0
  3  4  1  0
  3  5  2  0
  5  6  1  0
  6  7  2  0
  7  8  1  0
  8  9  2  0
  9 10  1  0
 10 11  1  0
 11 12  1  0
 12 13  1  0
 13 14  2  0
 14 15  1  0
 15 16  2  0
 16 17  1  0
 10 18  2  0
 18  2  1  0
 18  6  1  0
 17 13  1  0
M  END
>  <ref_pdb>  (3) 
c1454a

>  <inchikey>  (3) 
DGASNXVGKHJXGC-UHFFFAOYSA-N

>  <original ID>  (3) 
DGASNXVGKHJXGC-UHFFFAOYSA-N

>  <generation_date>  (3) 
None

>  <alias>  (3) 
None

>  <tags>  (3) 
['Syndirella base']

>  <ref_mols>  (3) 
c0892a,c1203a

>  <ref_url>  (3) 
None

>  <submitter_name>  (3) 
None

>  <exports>  (3) 
['/opt/xchem-fragalysis-2/maxwin/CHIKV_HIPPO/hippo_prod/CHIKV_prod11_recipes/Recipe_1G8PPKY_poses.sdf', '/opt/xchem-fragalysis-2/maxwin/CHIKV_HIPPO/web/web_resources/pose_sdfs/modal_c104_poses.sdf', '/opt/xchem-fragalysis-2/maxwin/CHIKV_HIPPO/hippo_prod/CHIKV_prod11_recipes/Recipe_1GERJCJ_poses.sdf']

>  <original SMILES>  (3) 
Cn1c(N)nc2cccc(NCc3cccs3)c21

>  <method>  (3) 
None

>  <submitter_email>  (3) 
None

>  <HIPPO ID>  (3) 
6278

$$$$
WXVLITNXXROEMR-UHFFFAOYSA-N
     RDKit          3D

 22 24  0  0  0  0  0  0  0  0999 V2000
   13.7778    8.8513    8.9663 C   0  0  0  0  0  0  0  0  0  0  0  0
   14.6194    8.2823   10.0818 C   0  0  0  0  0  0  0  0  0  0  0  0
   14.4339    6.8461   10.3992 C   0  0  0  0  0  0  0  0  0  0  0  0
   15.2393    6.1041   11.1185 N   0  0  0  0  0  0  0  0  0  0  0  0
   14.6572    4.8692   11.0724 C   0  0  0  0  0  0  0  0  0  0  0  0
   15.1902    3.8184   11.7929 N   0  0  0  0  0  0  0  0  0  0  0  0
   16.4342    3.9629   12.3719 C   0  0  0  0  0  0  0  0  0  0  0  0
   17.3439    4.6301   11.8784 O   0  0  0  0  0  0  0  0  0  0  0  0
   16.7302    3.3434   13.6835 C   0  0  0  0  0  0  0  0  0  0  0  0
   17.7780    3.8876   14.4250 C   0  0  0  0  0  0  0  0  0  0  0  0
   18.0524    3.3451   15.6617 C   0  0  0  0  0  0  0  0  0  0  0  0
   17.3807    2.3053   16.1913 N   0  0  0  0  0  0  0  0  0  0  0  0
   16.3935    1.7605   15.4742 C   0  0  0  0  0  0  0  0  0  0  0  0
   15.7662    0.6009   15.8912 N   0  0  0  0  0  0  0  0  0  0  0  0
   15.8909   -0.0425   17.1901 C   0  0  0  0  0  0  0  0  0  0  0  0
   17.2639   -0.5864   17.5667 C   0  0  0  0  0  0  0  0  0  0  0  0
   17.1248   -0.6913   19.0584 C   0  0  0  0  0  0  0  0  0  0  0  0
   16.1028    0.0478   19.5128 C   0  0  0  0  0  0  0  0  0  0  0  0
   15.3977    0.7588   18.3951 C   0  0  0  0  0  0  0  0  0  0  0  0
   16.0240    2.2818   14.2271 C   0  0  0  0  0  0  0  0  0  0  0  0
   13.5001    4.8352   10.3995 N   0  0  0  0  0  0  0  0  0  0  0  0
   13.3571    6.1548    9.9279 O   0  0  0  0  0  0  0  0  0  0  0  0
  1  2  1  0
  2  3  1  0
  3  4  2  0
  4  5  1  0
  5  6  1  0
  6  7  1  0
  7  8  2  0
  7  9  1  0
  9 10  2  0
 10 11  1  0
 11 12  2  0
 12 13  1  0
 13 14  1  0
 14 15  1  0
 15 16  1  0
 16 17  1  0
 17 18  2  0
 18 19  1  0
 13 20  2  0
  5 21  2  0
 21 22  1  0
 22  3  1  0
 20  9  1  0
 19 15  1  0
M  END
>  <ref_pdb>  (4) 
c0300a

>  <inchikey>  (4) 
WXVLITNXXROEMR-UHFFFAOYSA-N

>  <original ID>  (4) 
WXVLITNXXROEMR-UHFFFAOYSA-N

>  <generation_date>  (4) 
None

>  <alias>  (4) 
None

>  <tags>  (4) 
['Syndirella base']

>  <ref_mols>  (4) 
c0316a,c0441a

>  <ref_url>  (4) 
None

>  <submitter_name>  (4) 
None

>  <exports>  (4) 
['/opt/xchem-fragalysis-2/maxwin/CHIKV_HIPPO/hippo_prod/CHIKV_prod11_recipes/Recipe_1G8PPKY_poses.sdf', '/opt/xchem-fragalysis-2/maxwin/CHIKV_HIPPO/web/web_resources/pose_sdfs/modal_c93_poses.sdf', '/opt/xchem-fragalysis-2/maxwin/CHIKV_HIPPO/hippo_prod/CHIKV_prod11_recipes/Recipe_1GERJCJ_poses.sdf']

>  <original SMILES>  (4) 
CCc1nc(NC(=O)c2ccnc(NC3CC=CC3)c2)no1

>  <method>  (4) 
None

>  <submitter_email>  (4) 
None

>  <HIPPO ID>  (4) 
6297

$$$$
DVBHLIDWCNHTBP-AWEZNQCLSA-N
     RDKit          3D

 25 27  0  0  0  0  0  0  0  0999 V2000
   20.2862    1.8768   16.0497 C   0  0  0  0  0  0  0  0  0  0  0  0
   19.2537    0.9425   16.6351 C   0  0  0  0  0  0  0  0  0  0  0  0
   18.0238    1.6547   16.7975 O   0  0  0  0  0  0  0  0  0  0  0  0
   17.0316    0.8755   17.3535 C   0  0  0  0  0  0  0  0  0  0  0  0
   17.3052   -0.4433   17.5308 N   0  0  0  0  0  0  0  0  0  0  0  0
   16.3750   -1.1755   18.1707 C   0  0  0  0  0  0  0  0  0  0  0  0
   16.8907   -2.7674   18.5417 Cl  0  0  0  0  0  0  0  0  0  0  0  0
   15.1554   -0.6885   18.5875 C   0  0  0  0  0  0  0  0  0  0  0  0
   14.8838    0.6606   18.3678 C   0  0  0  0  0  0  0  0  0  0  0  0
   15.8359    1.4729   17.7398 C   0  0  0  0  0  0  0  0  0  0  0  0
   15.6251    2.9345   17.7866 C   0  0  0  0  0  0  0  0  0  0  0  0
   15.5025    3.4097   18.9183 O   0  0  0  0  0  0  0  0  0  0  0  0
   15.4942    3.7372   16.6495 N   0  0  0  0  0  0  0  0  0  0  0  0
   15.3652    5.1779   16.8425 C   0  0  0  0  0  0  0  0  0  0  0  0
   14.2088    5.8046   16.0621 C   0  0  0  0  0  0  0  0  0  0  0  0
   13.9601    5.2809   14.6497 C   0  0  0  0  0  0  0  0  0  0  0  0
   14.3243    3.8128   14.4480 C   0  0  0  0  0  0  0  0  0  0  0  0
   15.4947    3.2488   15.2827 C   0  0  1  0  0  0  0  0  0  0  0  0
   16.7157    3.6145   14.5026 C   0  0  0  0  0  0  0  0  0  0  0  0
   16.8937    4.9180   14.0558 C   0  0  0  0  0  0  0  0  0  0  0  0
   17.5110    5.1285   12.8687 C   0  0  0  0  0  0  0  0  0  0  0  0
   18.1775    4.0716   12.3504 C   0  0  0  0  0  0  0  0  0  0  0  0
   18.8380    4.1932   11.1941 O   0  0  0  0  0  0  0  0  0  0  0  0
   18.2562    2.8557   12.8646 N   0  0  0  0  0  0  0  0  0  0  0  0
   17.4631    2.6215   13.9127 C   0  0  0  0  0  0  0  0  0  0  0  0
  1  2  1  0
  2  3  1  0
  3  4  1  0
  4  5  2  0
  5  6  1  0
  6  7  1  0
  6  8  2  0
  8  9  1  0
  9 10  2  0
 10 11  1  0
 11 12  2  0
 11 13  1  0
 13 14  1  0
 14 15  1  0
 15 16  1  0
 16 17  1  0
 17 18  1  0
 18 19  1  6
 19 20  2  0
 20 21  1  0
 21 22  2  0
 22 23  1  0
 22 24  1  0
 24 25  2  0
 10  4  1  0
 18 13  1  0
 25 19  1  0
M  END
>  <ref_pdb>  (5) 
c0300a

>  <inchikey>  (5) 
DVBHLIDWCNHTBP-AWEZNQCLSA-N

>  <original ID>  (5) 
DVBHLIDWCNHTBP-AWEZNQCLSA-N

>  <generation_date>  (5) 
None

>  <alias>  (5) 
None

>  <tags>  (5) 
[]

>  <ref_mols>  (5) 
c0522a,c1118a

>  <ref_url>  (5) 
None

>  <submitter_name>  (5) 
None

>  <exports>  (5) 
nan

>  <original SMILES>  (5) 
CCOc1nc(Cl)ccc1C(=O)N1CCCC[C@H]1c1ccc(O)nc1

>  <method>  (5) 
None

>  <submitter_email>  (5) 
None

>  <HIPPO ID>  (5) 
8233

$$$$
DVBHLIDWCNHTBP-AWEZNQCLSA-N
     RDKit          3D

 25 27  0  0  0  0  0  0  0  0999 V2000
   20.2829    1.6807   15.7932 C   0  0  0  0  0  0  0  0  0  0  0  0
   19.2531    0.8256   16.4906 C   0  0  0  0  0  0  0  0  0  0  0  0
   18.0182    1.5424   16.5384 O   0  0  0  0  0  0  0  0  0  0  0  0
   17.0118    0.8206   17.1391 C   0  0  0  0  0  0  0  0  0  0  0  0
   17.2596   -0.4936   17.3861 N   0  0  0  0  0  0  0  0  0  0  0  0
   16.3361   -1.1646   18.0964 C   0  0  0  0  0  0  0  0  0  0  0  0
   16.8354   -2.7397   18.5537 Cl  0  0  0  0  0  0  0  0  0  0  0  0
   15.1458   -0.6215   18.5262 C   0  0  0  0  0  0  0  0  0  0  0  0
   14.9038    0.7225   18.2422 C   0  0  0  0  0  0  0  0  0  0  0  0
   15.8490    1.4755   17.5309 C   0  0  0  0  0  0  0  0  0  0  0  0
   15.7127    2.9490   17.5462 C   0  0  0  0  0  0  0  0  0  0  0  0
   15.5177    3.4529   18.6572 O   0  0  0  0  0  0  0  0  0  0  0  0
   15.7980    3.7637   16.4025 N   0  0  0  0  0  0  0  0  0  0  0  0
   15.7948    5.2072   16.6809 C   0  0  0  0  0  0  0  0  0  0  0  0
   15.9105    6.1049   15.4507 C   0  0  0  0  0  0  0  0  0  0  0  0
   14.8544    5.7835   14.3973 C   0  0  0  0  0  0  0  0  0  0  0  0
   14.2553    4.3886   14.6013 C   0  0  0  0  0  0  0  0  0  0  0  0
   15.3030    3.3458   15.0811 C   0  0  1  0  0  0  0  0  0  0  0  0
   16.3440    3.2847   14.0028 C   0  0  0  0  0  0  0  0  0  0  0  0
   15.9352    3.1463   12.6676 C   0  0  0  0  0  0  0  0  0  0  0  0
   16.8000    3.4880   11.6614 C   0  0  0  0  0  0  0  0  0  0  0  0
   18.0615    3.8475   12.0549 C   0  0  0  0  0  0  0  0  0  0  0  0
   18.9590    4.2220   11.1251 O   0  0  0  0  0  0  0  0  0  0  0  0
   18.5348    3.9046   13.2948 N   0  0  0  0  0  0  0  0  0  0  0  0
   17.6661    3.5950   14.2579 C   0  0  0  0  0  0  0  0  0  0  0  0
  1  2  1  0
  2  3  1  0
  3  4  1  0
  4  5  2  0
  5  6  1  0
  6  7  1  0
  6  8  2  0
  8  9  1  0
  9 10  2  0
 10 11  1  0
 11 12  2  0
 11 13  1  0
 13 14  1  0
 14 15  1  0
 15 16  1  0
 16 17  1  0
 17 18  1  0
 18 19  1  6
 19 20  2  0
 20 21  1  0
 21 22  2  0
 22 23  1  0
 22 24  1  0
 24 25  2  0
 10  4  1  0
 18 13  1  0
 25 19  1  0
M  END
>  <ref_pdb>  (6) 
c0300a

>  <inchikey>  (6) 
DVBHLIDWCNHTBP-AWEZNQCLSA-N

>  <original ID>  (6) 
DVBHLIDWCNHTBP-AWEZNQCLSA-N

>  <generation_date>  (6) 
None

>  <alias>  (6) 
None

>  <tags>  (6) 
[]

>  <ref_mols>  (6) 
c0522a,c1118a

>  <ref_url>  (6) 
None

>  <submitter_name>  (6) 
None

>  <exports>  (6) 
nan

>  <original SMILES>  (6) 
CCOc1nc(Cl)ccc1C(=O)N1CCCC[C@H]1c1ccc(O)nc1

>  <method>  (6) 
None

>  <submitter_email>  (6) 
None

>  <HIPPO ID>  (6) 
8234

$$$$
YXEVNELPDZXYRA-UHFFFAOYSA-N
     RDKit          3D

 26 28  0  0  0  0  0  0  0  0999 V2000
   20.0428    1.6076   15.6854 C   0  0  0  0  0  0  0  0  0  0  0  0
   19.1633    0.6794   16.4967 C   0  0  0  0  0  0  0  0  0  0  0  0
   17.9630    1.3749   16.8256 O   0  0  0  0  0  0  0  0  0  0  0  0
   17.0363    0.6024   17.4978 C   0  0  0  0  0  0  0  0  0  0  0  0
   17.3333   -0.7022   17.7054 N   0  0  0  0  0  0  0  0  0  0  0  0
   16.4319   -1.4121   18.4112 C   0  0  0  0  0  0  0  0  0  0  0  0
   16.9451   -3.0071   18.7698 Cl  0  0  0  0  0  0  0  0  0  0  0  0
   15.2330   -0.9127   18.8850 C   0  0  0  0  0  0  0  0  0  0  0  0
   14.9441    0.4292   18.6538 C   0  0  0  0  0  0  0  0  0  0  0  0
   15.8618    1.2092   17.9523 C   0  0  0  0  0  0  0  0  0  0  0  0
   15.6535    2.6695   17.8709 C   0  0  0  0  0  0  0  0  0  0  0  0
   15.3578    3.2849   18.8925 O   0  0  0  0  0  0  0  0  0  0  0  0
   15.8783    3.3101   16.6719 N   0  0  0  0  0  0  0  0  0  0  0  0
   16.3521    4.6820   16.6581 C   0  0  0  0  0  0  0  0  0  0  0  0
   17.5899    4.7352   15.7655 C   0  0  0  0  0  0  0  0  0  0  0  0
   17.2711    4.1640   14.4154 C   0  0  0  0  0  0  0  0  0  0  0  0
   18.0759    4.4950   13.3972 N   0  0  0  0  0  0  0  0  0  0  0  0
   17.6538    4.1291   12.1828 C   0  0  0  0  0  0  0  0  0  0  0  0
   18.6390    4.2362   11.2620 O   0  0  0  0  0  0  0  0  0  0  0  0
   16.3905    3.6374   11.8938 C   0  0  0  0  0  0  0  0  0  0  0  0
   15.8686    3.5474   10.5280 C   0  0  0  0  0  0  0  0  0  0  0  0
   14.5582    3.8201   10.3050 N   0  0  0  0  0  0  0  0  0  0  0  0
   16.6060    3.2445    9.6085 O   0  0  0  0  0  0  0  0  0  0  0  0
   15.6551    3.1746   12.9573 C   0  0  0  0  0  0  0  0  0  0  0  0
   16.1432    3.3728   14.2401 C   0  0  0  0  0  0  0  0  0  0  0  0
   15.4555    2.7575   15.4034 C   0  0  0  0  0  0  0  0  0  0  0  0
  1  2  1  0
  2  3  1  0
  3  4  1  0
  4  5  2  0
  5  6  1  0
  6  7  1  0
  6  8  2  0
  8  9  1  0
  9 10  2  0
 10 11  1  0
 11 12  2  0
 11 13  1  0
 13 14  1  0
 14 15  1  0
 15 16  1  0
 16 17  2  0
 17 18  1  0
 18 19  1  0
 18 20  2  0
 20 21  1  0
 21 22  1  0
 21 23  2  0
 20 24  1  0
 24 25  2  0
 25 26  1  0
 10  4  1  0
 26 13  1  0
 25 16  1  0
M  END
>  <ref_pdb>  (7) 
c0300a

>  <inchikey>  (7) 
YXEVNELPDZXYRA-UHFFFAOYSA-N

>  <original ID>  (7) 
YXEVNELPDZXYRA-UHFFFAOYSA-N

>  <generation_date>  (7) 
None

>  <alias>  (7) 
None

>  <tags>  (7) 
[]

>  <ref_mols>  (7) 
c0522a,c1118a

>  <ref_url>  (7) 
None

>  <submitter_name>  (7) 
None

>  <exports>  (7) 
nan

>  <original SMILES>  (7) 
CCOc1nc(Cl)ccc1C(=O)N1CCc2nc(O)c(C(N)=O)cc2C1

>  <method>  (7) 
None

>  <submitter_email>  (7) 
None

>  <HIPPO ID>  (7) 
8708

$$$$
LCPPTYRRUBNQBV-CQSZACIVSA-N
     RDKit          3D

 28 30  0  0  0  0  0  0  0  0999 V2000
   20.4806    1.4367   15.9123 C   0  0  0  0  0  0  0  0  0  0  0  0
   19.4870    0.6322   16.7173 C   0  0  0  0  0  0  0  0  0  0  0  0
   18.3613    1.4559   17.0448 O   0  0  0  0  0  0  0  0  0  0  0  0
   17.2877    0.7207   17.4934 C   0  0  0  0  0  0  0  0  0  0  0  0
   17.5703   -0.5576   17.8606 N   0  0  0  0  0  0  0  0  0  0  0  0
   16.5983   -1.3233   18.4202 C   0  0  0  0  0  0  0  0  0  0  0  0
   17.0036   -2.6846   18.9519 C   0  0  0  0  0  0  0  0  0  0  0  0
   16.0180   -3.6100   18.9472 F   0  0  0  0  0  0  0  0  0  0  0  0
   18.0219   -3.2531   18.2353 F   0  0  0  0  0  0  0  0  0  0  0  0
   17.4408   -2.6384   20.2403 F   0  0  0  0  0  0  0  0  0  0  0  0
   15.3131   -0.8330   18.5832 C   0  0  0  0  0  0  0  0  0  0  0  0
   15.0339    0.4760   18.1802 C   0  0  0  0  0  0  0  0  0  0  0  0
   16.0296    1.2938   17.6210 C   0  0  0  0  0  0  0  0  0  0  0  0
   15.6649    2.7242   17.4367 C   0  0  0  0  0  0  0  0  0  0  0  0
   15.1215    3.2545   18.4145 O   0  0  0  0  0  0  0  0  0  0  0  0
   15.8249    3.4552   16.2360 N   0  0  0  0  0  0  0  0  0  0  0  0
   15.4464    4.8692   16.3193 C   0  0  0  0  0  0  0  0  0  0  0  0
   16.5998    5.7254   16.8321 C   0  0  0  0  0  0  0  0  0  0  0  0
   17.9343    4.9919   16.7941 C   0  0  0  0  0  0  0  0  0  0  0  0
   18.0729    4.1656   15.5315 C   0  0  0  0  0  0  0  0  0  0  0  0
   16.8921    3.1842   15.2718 C   0  0  2  0  0  0  0  0  0  0  0  0
   16.5485    3.3259   13.8125 C   0  0  0  0  0  0  0  0  0  0  0  0
   15.2762    3.5673   13.3073 C   0  0  0  0  0  0  0  0  0  0  0  0
   15.1241    3.7867   11.9529 C   0  0  0  0  0  0  0  0  0  0  0  0
   16.2569    3.7215   11.1817 C   0  0  0  0  0  0  0  0  0  0  0  0
   16.1380    3.7181    9.8440 O   0  0  0  0  0  0  0  0  0  0  0  0
   17.5055    3.4913   11.5944 N   0  0  0  0  0  0  0  0  0  0  0  0
   17.6061    3.2400   12.9026 C   0  0  0  0  0  0  0  0  0  0  0  0
  1  2  1  0
  2  3  1  0
  3  4  1  0
  4  5  2  0
  5  6  1  0
  6  7  1  0
  7  8  1  0
  7  9  1  0
  7 10  1  0
  6 11  2  0
 11 12  1  0
 12 13  2  0
 13 14  1  0
 14 15  2  0
 14 16  1  0
 16 17  1  0
 17 18  1  0
 18 19  1  0
 19 20  1  0
 20 21  1  0
 21 22  1  6
 22 23  2  0
 23 24  1  0
 24 25  2  0
 25 26  1  0
 25 27  1  0
 27 28  2  0
 13  4  1  0
 21 16  1  0
 28 22  1  0
M  END
>  <ref_pdb>  (8) 
c0300a

>  <inchikey>  (8) 
LCPPTYRRUBNQBV-CQSZACIVSA-N

>  <original ID>  (8) 
LCPPTYRRUBNQBV-CQSZACIVSA-N

>  <generation_date>  (8) 
None

>  <alias>  (8) 
None

>  <tags>  (8) 
[]

>  <ref_mols>  (8) 
c0522a,c1118a

>  <ref_url>  (8) 
None

>  <submitter_name>  (8) 
None

>  <exports>  (8) 
nan

>  <original SMILES>  (8) 
CCOc1nc(C(F)(F)F)ccc1C(=O)N1CCCC[C@@H]1c1ccc(O)nc1

>  <method>  (8) 
None

>  <submitter_email>  (8) 
None

>  <HIPPO ID>  (8) 
9445

$$$$
LCPPTYRRUBNQBV-AWEZNQCLSA-N
     RDKit          3D

 28 30  0  0  0  0  0  0  0  0999 V2000
   20.3411    1.6229   15.8634 C   0  0  0  0  0  0  0  0  0  0  0  0
   19.3030    0.7889   16.5768 C   0  0  0  0  0  0  0  0  0  0  0  0
   18.0955    1.5462   16.6875 O   0  0  0  0  0  0  0  0  0  0  0  0
   17.0750    0.8459   17.2841 C   0  0  0  0  0  0  0  0  0  0  0  0
   17.3290   -0.4521   17.5904 N   0  0  0  0  0  0  0  0  0  0  0  0
   16.4126   -1.1431   18.3191 C   0  0  0  0  0  0  0  0  0  0  0  0
   16.7858   -2.5384   18.7708 C   0  0  0  0  0  0  0  0  0  0  0  0
   18.0636   -2.6293   19.2461 F   0  0  0  0  0  0  0  0  0  0  0  0
   16.7434   -3.4303   17.7526 F   0  0  0  0  0  0  0  0  0  0  0  0
   15.9950   -3.0437   19.7524 F   0  0  0  0  0  0  0  0  0  0  0  0
   15.1892   -0.5845   18.6600 C   0  0  0  0  0  0  0  0  0  0  0  0
   14.9365    0.7445   18.3196 C   0  0  0  0  0  0  0  0  0  0  0  0
   15.8963    1.4930   17.6274 C   0  0  0  0  0  0  0  0  0  0  0  0
   15.7349    2.9637   17.6009 C   0  0  0  0  0  0  0  0  0  0  0  0
   15.3881    3.4945   18.6597 O   0  0  0  0  0  0  0  0  0  0  0  0
   16.0108    3.7386   16.4599 N   0  0  0  0  0  0  0  0  0  0  0  0
   16.2192    5.1668   16.7471 C   0  0  0  0  0  0  0  0  0  0  0  0
   16.3495    6.0555   15.5139 C   0  0  0  0  0  0  0  0  0  0  0  0
   15.1402    5.9089   14.5920 C   0  0  0  0  0  0  0  0  0  0  0  0
   14.3786    4.6003   14.8562 C   0  0  0  0  0  0  0  0  0  0  0  0
   15.3336    3.4231   15.1872 C   0  0  1  0  0  0  0  0  0  0  0  0
   16.2513    3.2570   14.0082 C   0  0  0  0  0  0  0  0  0  0  0  0
   15.7359    3.2990   12.7009 C   0  0  0  0  0  0  0  0  0  0  0  0
   16.5694    3.6260   11.6609 C   0  0  0  0  0  0  0  0  0  0  0  0
   17.8878    3.7613   11.9901 C   0  0  0  0  0  0  0  0  0  0  0  0
   18.7931    4.1302   11.0814 O   0  0  0  0  0  0  0  0  0  0  0  0
   18.4641    3.5566   13.1694 N   0  0  0  0  0  0  0  0  0  0  0  0
   17.6222    3.3117   14.1718 C   0  0  0  0  0  0  0  0  0  0  0  0
  1  2  1  0
  2  3  1  0
  3  4  1  0
  4  5  2  0
  5  6  1  0
  6  7  1  0
  7  8  1  0
  7  9  1  0
  7 10  1  0
  6 11  2  0
 11 12  1  0
 12 13  2  0
 13 14  1  0
 14 15  2  0
 14 16  1  0
 16 17  1  0
 17 18  1  0
 18 19  1  0
 19 20  1  0
 20 21  1  0
 21 22  1  6
 22 23  2  0
 23 24  1  0
 24 25  2  0
 25 26  1  0
 25 27  1  0
 27 28  2  0
 13  4  1  0
 21 16  1  0
 28 22  1  0
M  END
>  <ref_pdb>  (9) 
c0300a

>  <inchikey>  (9) 
LCPPTYRRUBNQBV-AWEZNQCLSA-N

>  <original ID>  (9) 
LCPPTYRRUBNQBV-AWEZNQCLSA-N

>  <generation_date>  (9) 
None

>  <alias>  (9) 
None

>  <tags>  (9) 
[]

>  <ref_mols>  (9) 
c0522a,c1118a

>  <ref_url>  (9) 
None

>  <submitter_name>  (9) 
None

>  <exports>  (9) 
nan

>  <original SMILES>  (9) 
CCOc1nc(C(F)(F)F)ccc1C(=O)N1CCCC[C@H]1c1ccc(O)nc1

>  <method>  (9) 
None

>  <submitter_email>  (9) 
None

>  <HIPPO ID>  (9) 
9446

$$$$
UVIIMXXEOMVPAQ-UHFFFAOYSA-N
     RDKit          3D

 29 31  0  0  0  0  0  0  0  0999 V2000
   20.0502    1.6793   15.6162 C   0  0  0  0  0  0  0  0  0  0  0  0
   19.1750    0.7780   16.4575 C   0  0  0  0  0  0  0  0  0  0  0  0
   17.9536    1.4611   16.7370 O   0  0  0  0  0  0  0  0  0  0  0  0
   17.0487    0.6931   17.4390 C   0  0  0  0  0  0  0  0  0  0  0  0
   17.4040   -0.5817   17.7204 N   0  0  0  0  0  0  0  0  0  0  0  0
   16.5651   -1.3259   18.4903 C   0  0  0  0  0  0  0  0  0  0  0  0
   17.0427   -2.6914   18.9391 C   0  0  0  0  0  0  0  0  0  0  0  0
   18.3948   -2.8578   18.8332 F   0  0  0  0  0  0  0  0  0  0  0  0
   16.7365   -2.9726   20.2338 F   0  0  0  0  0  0  0  0  0  0  0  0
   16.5269   -3.7009   18.2047 F   0  0  0  0  0  0  0  0  0  0  0  0
   15.3230   -0.8450   18.8998 C   0  0  0  0  0  0  0  0  0  0  0  0
   14.9683    0.4678   18.5927 C   0  0  0  0  0  0  0  0  0  0  0  0
   15.8512    1.2616   17.8639 C   0  0  0  0  0  0  0  0  0  0  0  0
   15.6053    2.7120   17.7647 C   0  0  0  0  0  0  0  0  0  0  0  0
   15.3321    3.3310   18.7918 O   0  0  0  0  0  0  0  0  0  0  0  0
   15.7795    3.3521   16.5560 N   0  0  0  0  0  0  0  0  0  0  0  0
   16.2921    4.7095   16.5353 C   0  0  0  0  0  0  0  0  0  0  0  0
   17.5731    4.7024   15.7047 C   0  0  0  0  0  0  0  0  0  0  0  0
   17.2937    4.1228   14.3480 C   0  0  0  0  0  0  0  0  0  0  0  0
   18.1406    4.4381   13.3583 N   0  0  0  0  0  0  0  0  0  0  0  0
   17.7299    4.1242   12.1284 C   0  0  0  0  0  0  0  0  0  0  0  0
   18.7216    4.2408   11.2191 O   0  0  0  0  0  0  0  0  0  0  0  0
   16.4593    3.6945   11.8032 C   0  0  0  0  0  0  0  0  0  0  0  0
   15.9168    3.8025   10.4470 C   0  0  0  0  0  0  0  0  0  0  0  0
   15.0473    4.8265   10.2458 N   0  0  0  0  0  0  0  0  0  0  0  0
   16.2612    3.0768    9.5337 O   0  0  0  0  0  0  0  0  0  0  0  0
   15.6703    3.2375   12.8309 C   0  0  0  0  0  0  0  0  0  0  0  0
   16.1377    3.3792   14.1314 C   0  0  0  0  0  0  0  0  0  0  0  0
   15.4067    2.7759   15.2784 C   0  0  0  0  0  0  0  0  0  0  0  0
  1  2  1  0
  2  3  1  0
  3  4  1  0
  4  5  2  0
  5  6  1  0
  6  7  1  0
  7  8  1  0
  7  9  1  0
  7 10  1  0
  6 11  2  0
 11 12  1  0
 12 13  2  0
 13 14  1  0
 14 15  2  0
 14 16  1  0
 16 17  1  0
 17 18  1  0
 18 19  1  0
 19 20  2  0
 20 21  1  0
 21 22  1  0
 21 23  2  0
 23 24  1  0
 24 25  1  0
 24 26  2  0
 23 27  1  0
 27 28  2  0
 28 29  1  0
 13  4  1  0
 29 16  1  0
 28 19  1  0
M  END
>  <ref_pdb>  (10) 
c0300a

>  <inchikey>  (10) 
UVIIMXXEOMVPAQ-UHFFFAOYSA-N

>  <original ID>  (10) 
UVIIMXXEOMVPAQ-UHFFFAOYSA-N

>  <generation_date>  (10) 
None

>  <alias>  (10) 
None

>  <tags>  (10) 
[]

>  <ref_mols>  (10) 
c0522a,c1118a

>  <ref_url>  (10) 
None

>  <submitter_name>  (10) 
None

>  <exports>  (10) 
nan

>  <original SMILES>  (10) 
CCOc1nc(C(F)(F)F)ccc1C(=O)N1CCc2nc(O)c(C(N)=O)cc2C1

>  <method>  (10) 
None

>  <submitter_email>  (10) 
None

>  <HIPPO ID>  (10) 
9646

$$$$
PVIMVDAEIOEXPJ-MRVPVSSYSA-N
     RDKit          3D

 24 25  0  0  0  0  0  0  0  0999 V2000
    8.8098    4.8860   14.3949 C   0  0  0  0  0  0  0  0  0  0  0  0
    9.5816    6.0507   14.6668 O   0  0  0  0  0  0  0  0  0  0  0  0
   10.7833    6.1139   14.0966 C   0  0  0  0  0  0  0  0  0  0  0  0
   12.0941    6.7590   14.9840 S   0  0  0  0  0  0  0  0  0  0  0  0
   13.2188    6.3911   13.7448 C   0  0  0  0  0  0  0  0  0  0  0  0
   14.6813    6.7059   13.8963 C   0  0  0  0  0  0  0  0  0  0  0  0
   14.8763    8.1365   13.6593 N   0  0  0  0  0  0  0  0  0  0  0  0
   14.8220    8.9984   14.8627 C   0  0  0  0  0  0  0  0  0  0  0  0
   16.1095    9.7870   15.1947 C   0  0  1  0  0  0  0  0  0  0  0  0
   16.3014   10.9164   14.3465 O   0  0  0  0  0  0  0  0  0  0  0  0
   16.0609   10.3506   16.6182 C   0  0  0  0  0  0  0  0  0  0  0  0
   15.0758   11.3891   16.6525 O   0  0  0  0  0  0  0  0  0  0  0  0
   14.8582    8.5200   12.3041 C   0  0  0  0  0  0  0  0  0  0  0  0
   14.9336    7.6500   11.4320 O   0  0  0  0  0  0  0  0  0  0  0  0
   14.7318    9.9112   11.9151 C   0  0  0  0  0  0  0  0  0  0  0  0
   14.3146   11.0257   12.6133 C   0  0  0  0  0  0  0  0  0  0  0  0
   14.5006   12.1009   11.7681 C   0  0  0  0  0  0  0  0  0  0  0  0
   14.5992   13.7919   12.5393 Br  0  0  0  0  0  0  0  0  0  0  0  0
   14.7888   11.7357   10.5261 N   0  0  0  0  0  0  0  0  0  0  0  0
   14.8878   10.3853   10.6196 N   0  0  0  0  0  0  0  0  0  0  0  0
   15.1405    9.6172    9.4186 C   0  0  0  0  0  0  0  0  0  0  0  0
   12.5882    5.8731   12.6324 C   0  0  0  0  0  0  0  0  0  0  0  0
   11.1968    5.7918   12.8316 C   0  0  0  0  0  0  0  0  0  0  0  0
   10.0362    5.3300   11.4547 Br  0  0  0  0  0  0  0  0  0  0  0  0
  1  2  1  0
  2  3  1  0
  3  4  1  0
  4  5  1  0
  5  6  1  0
  6  7  1  0
  7  8  1  0
  8  9  1  0
  9 10  1  6
  9 11  1  0
 11 12  1  0
  7 13  1  0
 13 14  2  0
 13 15  1  0
 15 16  2  0
 16 17  1  0
 17 18  1  0
 17 19  2  0
 19 20  1  0
 20 21  1  0
  5 22  2  0
 22 23  1  0
 23 24  1  0
 23  3  2  0
 20 15  1  0
M  END
>  <ref_pdb>  (11) 
c0300a

>  <inchikey>  (11) 
PVIMVDAEIOEXPJ-MRVPVSSYSA-N

>  <original ID>  (11) 
PVIMVDAEIOEXPJ-MRVPVSSYSA-N

>  <generation_date>  (11) 
None

>  <alias>  (11) 
None

>  <tags>  (11) 
[]

>  <ref_mols>  (11) 
c0892a,c1151a

>  <ref_url>  (11) 
None

>  <submitter_name>  (11) 
None

>  <exports>  (11) 
nan

>  <original SMILES>  (11) 
COc1sc(CN(C[C@@H](O)CO)C(=O)c2cc(Br)nn2C)cc1Br

>  <method>  (11) 
None

>  <submitter_email>  (11) 
None

>  <HIPPO ID>  (11) 
11142

$$$$
QTTZEMRXRKZNQP-UHFFFAOYSA-N
     RDKit          3D

 21 22  0  0  0  0  0  0  0  0999 V2000
   23.6561   14.2903   11.7458 N   0  0  0  0  0  0  0  0  0  0  0  0
   22.8986   13.7028   10.7857 C   0  0  0  0  0  0  0  0  0  0  0  0
   23.3069   13.4506    9.6631 O   0  0  0  0  0  0  0  0  0  0  0  0
   21.5283   13.3539   11.1744 C   0  0  0  0  0  0  0  0  0  0  0  0
   21.0492   12.1884   10.6334 C   0  0  0  0  0  0  0  0  0  0  0  0
   19.7212   11.8630   10.8327 C   0  0  0  0  0  0  0  0  0  0  0  0
   19.2173   10.5179    9.9773 Cl  0  0  0  0  0  0  0  0  0  0  0  0
   18.8395   12.6147   11.6103 C   0  0  0  0  0  0  0  0  0  0  0  0
   17.4747   12.0556   11.9238 C   0  0  0  0  0  0  0  0  0  0  0  0
   17.0671   12.1188   13.0761 O   0  0  0  0  0  0  0  0  0  0  0  0
   16.8194   11.4261   10.8813 N   0  0  0  0  0  0  0  0  0  0  0  0
   15.8974   10.3639   10.9242 C   0  0  0  0  0  0  0  0  0  0  0  0
   15.4448    9.8927    9.6817 C   0  0  0  0  0  0  0  0  0  0  0  0
   14.6575    8.7543    9.5873 C   0  0  0  0  0  0  0  0  0  0  0  0
   14.3568    8.0570   10.7418 C   0  0  0  0  0  0  0  0  0  0  0  0
   13.5765    6.9418   10.6812 O   0  0  0  0  0  0  0  0  0  0  0  0
   14.7878    8.5132   11.9863 C   0  0  0  0  0  0  0  0  0  0  0  0
   15.5333    9.6920   12.0846 C   0  0  0  0  0  0  0  0  0  0  0  0
   19.3518   13.7819   12.1786 C   0  0  0  0  0  0  0  0  0  0  0  0
   18.3703   14.8702   13.0850 Cl  0  0  0  0  0  0  0  0  0  0  0  0
   20.6916   14.1600   11.9528 C   0  0  0  0  0  0  0  0  0  0  0  0
  1  2  1  0
  2  3  2  0
  2  4  1  0
  4  5  2  0
  5  6  1  0
  6  7  1  0
  6  8  2  0
  8  9  1  0
  9 10  2  0
  9 11  1  0
 11 12  1  0
 12 13  2  0
 13 14  1  0
 14 15  2  0
 15 16  1  0
 15 17  1  0
 17 18  2  0
  8 19  1  0
 19 20  1  0
 19 21  2  0
 21  4  1  0
 18 12  1  0
M  END
>  <ref_pdb>  (12) 
c0270a

>  <inchikey>  (12) 
QTTZEMRXRKZNQP-UHFFFAOYSA-N

>  <original ID>  (12) 
QTTZEMRXRKZNQP-UHFFFAOYSA-N

>  <generation_date>  (12) 
None

>  <alias>  (12) 
None

>  <tags>  (12) 
[]

>  <ref_mols>  (12) 
c0692a,c1371a

>  <ref_url>  (12) 
None

>  <submitter_name>  (12) 
None

>  <exports>  (12) 
nan

>  <original SMILES>  (12) 
NC(=O)c1cc(Cl)c(C(=O)Nc2ccc(O)cc2)c(Cl)c1

>  <method>  (12) 
None

>  <submitter_email>  (12) 
None

>  <HIPPO ID>  (12) 
11590

$$$$
ZZZIOWKDTQACJU-UHFFFAOYSA-N
     RDKit          3D

 22 23  0  0  0  0  0  0  0  0999 V2000
   23.7232   14.2471   11.7157 N   0  0  0  0  0  0  0  0  0  0  0  0
   22.9558   13.6686   10.7582 C   0  0  0  0  0  0  0  0  0  0  0  0
   23.3567   13.4118    9.6341 O   0  0  0  0  0  0  0  0  0  0  0  0
   21.5823   13.3388   11.1500 C   0  0  0  0  0  0  0  0  0  0  0  0
   21.0858   12.1740   10.6249 C   0  0  0  0  0  0  0  0  0  0  0  0
   19.7486   11.8750   10.8166 C   0  0  0  0  0  0  0  0  0  0  0  0
   19.2416   10.5239    9.9723 Cl  0  0  0  0  0  0  0  0  0  0  0  0
   18.8697   12.6563   11.5691 C   0  0  0  0  0  0  0  0  0  0  0  0
   17.4691   12.1636   11.8511 C   0  0  0  0  0  0  0  0  0  0  0  0
   16.9554   12.4358   12.9300 O   0  0  0  0  0  0  0  0  0  0  0  0
   16.8575   11.3972   10.8743 N   0  0  0  0  0  0  0  0  0  0  0  0
   15.9083   10.3496   10.9768 C   0  0  0  0  0  0  0  0  0  0  0  0
   15.4820    9.8198    9.7395 C   0  0  0  0  0  0  0  0  0  0  0  0
   14.6599    8.7026    9.6706 C   0  0  0  0  0  0  0  0  0  0  0  0
   14.3190    8.0645   10.8424 C   0  0  0  0  0  0  0  0  0  0  0  0
   13.4735    7.0264   10.8040 F   0  0  0  0  0  0  0  0  0  0  0  0
   14.7448    8.5548   12.0750 C   0  0  0  0  0  0  0  0  0  0  0  0
   15.4636    9.7540   12.1689 C   0  0  0  0  0  0  0  0  0  0  0  0
   15.9022   10.1484   13.4431 N   0  0  0  0  0  0  0  0  0  0  0  0
   19.4075   13.8200   12.1303 C   0  0  0  0  0  0  0  0  0  0  0  0
   18.4613   14.9506   13.0266 Cl  0  0  0  0  0  0  0  0  0  0  0  0
   20.7569   14.1676   11.9128 C   0  0  0  0  0  0  0  0  0  0  0  0
  1  2  1  0
  2  3  2  0
  2  4  1  0
  4  5  2  0
  5  6  1  0
  6  7  1  0
  6  8  2  0
  8  9  1  0
  9 10  2  0
  9 11  1  0
 11 12  1  0
 12 13  2  0
 13 14  1  0
 14 15  2  0
 15 16  1  0
 15 17  1  0
 17 18  2  0
 18 19  1  0
  8 20  1  0
 20 21  1  0
 20 22  2  0
 22  4  1  0
 18 12  1  0
M  END
>  <ref_pdb>  (13) 
c0270a

>  <inchikey>  (13) 
ZZZIOWKDTQACJU-UHFFFAOYSA-N

>  <original ID>  (13) 
ZZZIOWKDTQACJU-UHFFFAOYSA-N

>  <generation_date>  (13) 
None

>  <alias>  (13) 
None

>  <tags>  (13) 
[]

>  <ref_mols>  (13) 
c0692a,c1371a

>  <ref_url>  (13) 
None

>  <submitter_name>  (13) 
None

>  <exports>  (13) 
nan

>  <original SMILES>  (13) 
NC(=O)c1cc(Cl)c(C(=O)Nc2ccc(F)cc2N)c(Cl)c1

>  <method>  (13) 
None

>  <submitter_email>  (13) 
None

>  <HIPPO ID>  (13) 
12122

$$$$
LLWCNOCMIQXADI-UHFFFAOYSA-N
     RDKit          3D

 22 23  0  0  0  0  0  0  0  0999 V2000
   23.7745   14.2169   11.6831 N   0  0  0  0  0  0  0  0  0  0  0  0
   22.9941   13.6543   10.7270 C   0  0  0  0  0  0  0  0  0  0  0  0
   23.3831   13.4000    9.5984 O   0  0  0  0  0  0  0  0  0  0  0  0
   21.6200   13.3378   11.1260 C   0  0  0  0  0  0  0  0  0  0  0  0
   21.1112   12.1734   10.6107 C   0  0  0  0  0  0  0  0  0  0  0  0
   19.7728   11.8867   10.8112 C   0  0  0  0  0  0  0  0  0  0  0  0
   19.2483   10.5316    9.9826 Cl  0  0  0  0  0  0  0  0  0  0  0  0
   18.9060   12.6823   11.5627 C   0  0  0  0  0  0  0  0  0  0  0  0
   17.5061   12.2045   11.8637 C   0  0  0  0  0  0  0  0  0  0  0  0
   17.0104   12.4922   12.9466 O   0  0  0  0  0  0  0  0  0  0  0  0
   16.8785   11.4211   10.9123 N   0  0  0  0  0  0  0  0  0  0  0  0
   15.9420   10.3662   11.0579 C   0  0  0  0  0  0  0  0  0  0  0  0
   15.5772    9.7304    9.8509 C   0  0  0  0  0  0  0  0  0  0  0  0
   14.7990    8.5739    9.8318 C   0  0  0  0  0  0  0  0  0  0  0  0
   14.4173    7.9912   11.0251 C   0  0  0  0  0  0  0  0  0  0  0  0
   14.7369    8.6386   12.2100 C   0  0  0  0  0  0  0  0  0  0  0  0
   14.3277    8.0752   13.3921 O   0  0  0  0  0  0  0  0  0  0  0  0
   15.4422    9.8540   12.2586 C   0  0  0  0  0  0  0  0  0  0  0  0
   15.6952   10.3868   13.5446 N   0  0  0  0  0  0  0  0  0  0  0  0
   19.4562   13.8456   12.1133 C   0  0  0  0  0  0  0  0  0  0  0  0
   18.5246   14.9894   13.0087 Cl  0  0  0  0  0  0  0  0  0  0  0  0
   20.8066   14.1796   11.8870 C   0  0  0  0  0  0  0  0  0  0  0  0
  1  2  1  0
  2  3  2  0
  2  4  1  0
  4  5  2  0
  5  6  1  0
  6  7  1  0
  6  8  2  0
  8  9  1  0
  9 10  2  0
  9 11  1  0
 11 12  1  0
 12 13  2  0
 13 14  1  0
 14 15  2  0
 15 16  1  0
 16 17  1  0
 16 18  2  0
 18 19  1  0
  8 20  1  0
 20 21  1  0
 20 22  2  0
 22  4  1  0
 18 12  1  0
M  END
>  <ref_pdb>  (14) 
c0270a

>  <inchikey>  (14) 
LLWCNOCMIQXADI-UHFFFAOYSA-N

>  <original ID>  (14) 
LLWCNOCMIQXADI-UHFFFAOYSA-N

>  <generation_date>  (14) 
None

>  <alias>  (14) 
None

>  <tags>  (14) 
[]

>  <ref_mols>  (14) 
c0692a,c1371a

>  <ref_url>  (14) 
None

>  <submitter_name>  (14) 
None

>  <exports>  (14) 
nan

>  <original SMILES>  (14) 
NC(=O)c1cc(Cl)c(C(=O)Nc2cccc(O)c2N)c(Cl)c1

>  <method>  (14) 
None

>  <submitter_email>  (14) 
None

>  <HIPPO ID>  (14) 
12197

$$$$
QXMABBHFLKEMLR-UHFFFAOYSA-N
     RDKit          3D

 22 23  0  0  0  0  0  0  0  0999 V2000
   23.3331   14.2878    9.6696 N   0  0  0  0  0  0  0  0  0  0  0  0
   23.0626   13.2304   10.4668 C   0  0  0  0  0  0  0  0  0  0  0  0
   23.8837   12.3668   10.7215 O   0  0  0  0  0  0  0  0  0  0  0  0
   21.6814   13.1108   10.9397 C   0  0  0  0  0  0  0  0  0  0  0  0
   21.0483   11.9473   10.5694 C   0  0  0  0  0  0  0  0  0  0  0  0
   19.7006   11.8067   10.8488 C   0  0  0  0  0  0  0  0  0  0  0  0
   18.9699   10.4915   10.0937 Cl  0  0  0  0  0  0  0  0  0  0  0  0
   18.9683   12.7295   11.6030 C   0  0  0  0  0  0  0  0  0  0  0  0
   17.5620   12.3952   12.0265 C   0  0  0  0  0  0  0  0  0  0  0  0
   17.1565   12.7291   13.1320 O   0  0  0  0  0  0  0  0  0  0  0  0
   16.8113   11.6832   11.1202 N   0  0  0  0  0  0  0  0  0  0  0  0
   15.9135   10.6140   11.3330 C   0  0  0  0  0  0  0  0  0  0  0  0
   15.3967   10.0787   10.1509 C   0  0  0  0  0  0  0  0  0  0  0  0
   14.6505    8.9195   10.1867 C   0  0  0  0  0  0  0  0  0  0  0  0
   13.6376    8.4897    8.6887 Br  0  0  0  0  0  0  0  0  0  0  0  0
   14.5237    8.1907   11.3546 C   0  0  0  0  0  0  0  0  0  0  0  0
   14.9983    8.7444   12.5402 C   0  0  0  0  0  0  0  0  0  0  0  0
   15.6114   10.0058   12.5605 C   0  0  0  0  0  0  0  0  0  0  0  0
   16.1119   10.4615   13.7847 N   0  0  0  0  0  0  0  0  0  0  0  0
   19.6445   13.8802   12.0179 C   0  0  0  0  0  0  0  0  0  0  0  0
   18.8616   15.1434   12.8927 Cl  0  0  0  0  0  0  0  0  0  0  0  0
   20.9919   14.0891   11.6580 C   0  0  0  0  0  0  0  0  0  0  0  0
  1  2  1  0
  2  3  2  0
  2  4  1  0
  4  5  2  0
  5  6  1  0
  6  7  1  0
  6  8  2  0
  8  9  1  0
  9 10  2  0
  9 11  1  0
 11 12  1  0
 12 13  2  0
 13 14  1  0
 14 15  1  0
 14 16  2  0
 16 17  1  0
 17 18  2  0
 18 19  1  0
  8 20  1  0
 20 21  1  0
 20 22  2  0
 22  4  1  0
 18 12  1  0
M  END
>  <ref_pdb>  (15) 
c0270a

>  <inchikey>  (15) 
QXMABBHFLKEMLR-UHFFFAOYSA-N

>  <original ID>  (15) 
QXMABBHFLKEMLR-UHFFFAOYSA-N

>  <generation_date>  (15) 
None

>  <alias>  (15) 
None

>  <tags>  (15) 
[]

>  <ref_mols>  (15) 
c0692a,c1371a

>  <ref_url>  (15) 
None

>  <submitter_name>  (15) 
None

>  <exports>  (15) 
nan

>  <original SMILES>  (15) 
NC(=O)c1cc(Cl)c(C(=O)Nc2cc(Br)ccc2N)c(Cl)c1

>  <method>  (15) 
None

>  <submitter_email>  (15) 
None

>  <HIPPO ID>  (15) 
12199

$$$$
SAIDAQMCKKGFBM-UHFFFAOYSA-N
     RDKit          3D

 22 23  0  0  0  0  0  0  0  0999 V2000
   23.6980   14.2357   11.6874 N   0  0  0  0  0  0  0  0  0  0  0  0
   22.9200   13.6516   10.7422 C   0  0  0  0  0  0  0  0  0  0  0  0
   23.3078   13.3895    9.6146 O   0  0  0  0  0  0  0  0  0  0  0  0
   21.5499   13.3242   11.1506 C   0  0  0  0  0  0  0  0  0  0  0  0
   21.0423   12.1596   10.6338 C   0  0  0  0  0  0  0  0  0  0  0  0
   19.7053   11.8669   10.8401 C   0  0  0  0  0  0  0  0  0  0  0  0
   19.1769   10.5189    9.9998 Cl  0  0  0  0  0  0  0  0  0  0  0  0
   18.8388   12.6530   11.6037 C   0  0  0  0  0  0  0  0  0  0  0  0
   17.4373   12.1647   11.9046 C   0  0  0  0  0  0  0  0  0  0  0  0
   16.9485   12.4407   12.9882 O   0  0  0  0  0  0  0  0  0  0  0  0
   16.8133   11.4312   10.9143 N   0  0  0  0  0  0  0  0  0  0  0  0
   15.8656   10.3780   10.9484 C   0  0  0  0  0  0  0  0  0  0  0  0
   15.4400    9.9747    9.6647 C   0  0  0  0  0  0  0  0  0  0  0  0
   14.6552    8.8491    9.4596 C   0  0  0  0  0  0  0  0  0  0  0  0
   14.3230    8.0692   10.5435 C   0  0  0  0  0  0  0  0  0  0  0  0
   13.5649    6.9517   10.3715 O   0  0  0  0  0  0  0  0  0  0  0  0
   14.7059    8.4436   11.8266 C   0  0  0  0  0  0  0  0  0  0  0  0
   15.4378    9.6228   12.0447 C   0  0  0  0  0  0  0  0  0  0  0  0
   15.8027    9.9646   13.6884 Cl  0  0  0  0  0  0  0  0  0  0  0  0
   19.3869   13.8179   12.1522 C   0  0  0  0  0  0  0  0  0  0  0  0
   18.4531   14.9617   13.0438 Cl  0  0  0  0  0  0  0  0  0  0  0  0
   20.7354   14.1591   11.9183 C   0  0  0  0  0  0  0  0  0  0  0  0
  1  2  1  0
  2  3  2  0
  2  4  1  0
  4  5  2  0
  5  6  1  0
  6  7  1  0
  6  8  2  0
  8  9  1  0
  9 10  2  0
  9 11  1  0
 11 12  1  0
 12 13  2  0
 13 14  1  0
 14 15  2  0
 15 16  1  0
 15 17  1  0
 17 18  2  0
 18 19  1  0
  8 20  1  0
 20 21  1  0
 20 22  2  0
 22  4  1  0
 18 12  1  0
M  END
>  <ref_pdb>  (16) 
c0270a

>  <inchikey>  (16) 
SAIDAQMCKKGFBM-UHFFFAOYSA-N

>  <original ID>  (16) 
SAIDAQMCKKGFBM-UHFFFAOYSA-N

>  <generation_date>  (16) 
None

>  <alias>  (16) 
None

>  <tags>  (16) 
[]

>  <ref_mols>  (16) 
c0692a,c1371a

>  <ref_url>  (16) 
None

>  <submitter_name>  (16) 
None

>  <exports>  (16) 
nan

>  <original SMILES>  (16) 
NC(=O)c1cc(Cl)c(C(=O)Nc2ccc(O)cc2Cl)c(Cl)c1

>  <method>  (16) 
None

>  <submitter_email>  (16) 
None

>  <HIPPO ID>  (16) 
12247

$$$$
WQTPYAHOMBDAHE-UHFFFAOYSA-N
     RDKit          3D

 22 23  0  0  0  0  0  0  0  0999 V2000
   23.8006   14.1496   11.5822 N   0  0  0  0  0  0  0  0  0  0  0  0
   22.9832   13.5939   10.6537 C   0  0  0  0  0  0  0  0  0  0  0  0
   23.3326   13.3324    9.5140 O   0  0  0  0  0  0  0  0  0  0  0  0
   21.6160   13.2998   11.0940 C   0  0  0  0  0  0  0  0  0  0  0  0
   21.0666   12.1393   10.6067 C   0  0  0  0  0  0  0  0  0  0  0  0
   19.7261   11.8853   10.8441 C   0  0  0  0  0  0  0  0  0  0  0  0
   19.1365   10.5340   10.0411 Cl  0  0  0  0  0  0  0  0  0  0  0  0
   18.9019   12.7125   11.6134 C   0  0  0  0  0  0  0  0  0  0  0  0
   17.4980   12.2789   11.9624 C   0  0  0  0  0  0  0  0  0  0  0  0
   17.0251   12.6268   13.0323 O   0  0  0  0  0  0  0  0  0  0  0  0
   16.8331   11.5044   11.0350 N   0  0  0  0  0  0  0  0  0  0  0  0
   15.9114   10.4419   11.1940 C   0  0  0  0  0  0  0  0  0  0  0  0
   15.3883    9.9742    9.9779 C   0  0  0  0  0  0  0  0  0  0  0  0
   14.5828    8.8470    9.9380 C   0  0  0  0  0  0  0  0  0  0  0  0
   13.6397    8.5471    8.5563 Cl  0  0  0  0  0  0  0  0  0  0  0  0
   14.4091    8.0611   11.0617 C   0  0  0  0  0  0  0  0  0  0  0  0
   14.8841    8.5310   12.2798 C   0  0  0  0  0  0  0  0  0  0  0  0
   15.5722    9.7513   12.3649 C   0  0  0  0  0  0  0  0  0  0  0  0
   15.9648   10.2267   13.9639 Cl  0  0  0  0  0  0  0  0  0  0  0  0
   19.4920   13.8726   12.1285 C   0  0  0  0  0  0  0  0  0  0  0  0
   18.6101   15.0599   13.0173 Cl  0  0  0  0  0  0  0  0  0  0  0  0
   20.8421   14.1713   11.8621 C   0  0  0  0  0  0  0  0  0  0  0  0
  1  2  1  0
  2  3  2  0
  2  4  1  0
  4  5  2  0
  5  6  1  0
  6  7  1  0
  6  8  2  0
  8  9  1  0
  9 10  2  0
  9 11  1  0
 11 12  1  0
 12 13  2  0
 13 14  1  0
 14 15  1  0
 14 16  2  0
 16 17  1  0
 17 18  2  0
 18 19  1  0
  8 20  1  0
 20 21  1  0
 20 22  2  0
 22  4  1  0
 18 12  1  0
M  END
>  <ref_pdb>  (17) 
c0270a

>  <inchikey>  (17) 
WQTPYAHOMBDAHE-UHFFFAOYSA-N

>  <original ID>  (17) 
WQTPYAHOMBDAHE-UHFFFAOYSA-N

>  <generation_date>  (17) 
None

>  <alias>  (17) 
None

>  <tags>  (17) 
[]

>  <ref_mols>  (17) 
c0692a,c1371a

>  <ref_url>  (17) 
None

>  <submitter_name>  (17) 
None

>  <exports>  (17) 
nan

>  <original SMILES>  (17) 
NC(=O)c1cc(Cl)c(C(=O)Nc2cc(Cl)ccc2Cl)c(Cl)c1

>  <method>  (17) 
None

>  <submitter_email>  (17) 
None

>  <HIPPO ID>  (17) 
12268

$$$$
JJGJEGAREBMUCH-UHFFFAOYSA-N
     RDKit          3D

 22 23  0  0  0  0  0  0  0  0999 V2000
   15.6617   10.2242   13.5520 C   0  0  0  0  0  0  0  0  0  0  0  0
   15.4717    9.7194   12.1570 C   0  0  0  0  0  0  0  0  0  0  0  0
   14.7038    8.5448   12.0227 C   0  0  0  0  0  0  0  0  0  0  0  0
   14.3217    8.0631   10.7761 C   0  0  0  0  0  0  0  0  0  0  0  0
   13.4467    7.0522   10.7010 F   0  0  0  0  0  0  0  0  0  0  0  0
   14.7301    8.6996    9.6299 C   0  0  0  0  0  0  0  0  0  0  0  0
   15.5808    9.7938    9.7435 C   0  0  0  0  0  0  0  0  0  0  0  0
   15.9738   10.3217   10.9948 C   0  0  0  0  0  0  0  0  0  0  0  0
   16.9443   11.3519   10.9056 N   0  0  0  0  0  0  0  0  0  0  0  0
   17.5300   12.1658   11.8606 C   0  0  0  0  0  0  0  0  0  0  0  0
   17.0196   12.4636   12.9307 O   0  0  0  0  0  0  0  0  0  0  0  0
   18.9184   12.7000   11.5751 C   0  0  0  0  0  0  0  0  0  0  0  0
   19.8263   11.9554   10.8236 C   0  0  0  0  0  0  0  0  0  0  0  0
   19.4038   10.5897    9.9715 Cl  0  0  0  0  0  0  0  0  0  0  0  0
   21.1553   12.2896   10.6408 C   0  0  0  0  0  0  0  0  0  0  0  0
   21.6274   13.4483   11.1904 C   0  0  0  0  0  0  0  0  0  0  0  0
   23.0139   13.7666   10.8433 C   0  0  0  0  0  0  0  0  0  0  0  0
   23.7558   14.3272   11.8308 N   0  0  0  0  0  0  0  0  0  0  0  0
   23.4513   13.5024    9.7343 O   0  0  0  0  0  0  0  0  0  0  0  0
   20.7767   14.2511   11.9503 C   0  0  0  0  0  0  0  0  0  0  0  0
   19.4291   13.8739   12.1457 C   0  0  0  0  0  0  0  0  0  0  0  0
   18.4555   14.9846   13.0392 Cl  0  0  0  0  0  0  0  0  0  0  0  0
  1  2  1  0
  2  3  2  0
  3  4  1  0
  4  5  1  0
  4  6  2  0
  6  7  1  0
  7  8  2  0
  8  9  1  0
  9 10  1  0
 10 11  2  0
 10 12  1  0
 12 13  2  0
 13 14  1  0
 13 15  1  0
 15 16  2  0
 16 17  1  0
 17 18  1  0
 17 19  2  0
 16 20  1  0
 20 21  2  0
 21 22  1  0
  8  2  1  0
 21 12  1  0
M  END
>  <ref_pdb>  (18) 
c0270a

>  <inchikey>  (18) 
JJGJEGAREBMUCH-UHFFFAOYSA-N

>  <original ID>  (18) 
JJGJEGAREBMUCH-UHFFFAOYSA-N

>  <generation_date>  (18) 
None

>  <alias>  (18) 
None

>  <tags>  (18) 
[]

>  <ref_mols>  (18) 
c0692a,c1371a

>  <ref_url>  (18) 
None

>  <submitter_name>  (18) 
None

>  <exports>  (18) 
nan

>  <original SMILES>  (18) 
Cc1cc(F)ccc1NC(=O)c1c(Cl)cc(C(N)=O)cc1Cl

>  <method>  (18) 
None

>  <submitter_email>  (18) 
None

>  <HIPPO ID>  (18) 
12311

$$$$
VKBULLRWWDQECA-UHFFFAOYSA-N
     RDKit          3D

 22 23  0  0  0  0  0  0  0  0999 V2000
   23.6130   14.1863   11.5886 N   0  0  0  0  0  0  0  0  0  0  0  0
   22.8173   13.5851   10.6683 C   0  0  0  0  0  0  0  0  0  0  0  0
   23.1858   13.3056    9.5388 O   0  0  0  0  0  0  0  0  0  0  0  0
   21.4501   13.2711   11.1030 C   0  0  0  0  0  0  0  0  0  0  0  0
   20.9112   12.1055   10.6141 C   0  0  0  0  0  0  0  0  0  0  0  0
   19.5689   11.8398   10.8420 C   0  0  0  0  0  0  0  0  0  0  0  0
   18.9875   10.4847   10.0445 Cl  0  0  0  0  0  0  0  0  0  0  0  0
   18.7317   12.6539   11.6074 C   0  0  0  0  0  0  0  0  0  0  0  0
   17.3383   12.1857   11.9672 C   0  0  0  0  0  0  0  0  0  0  0  0
   16.9106   12.4946   13.0675 O   0  0  0  0  0  0  0  0  0  0  0  0
   16.6573   11.4279   11.0328 N   0  0  0  0  0  0  0  0  0  0  0  0
   15.7848   10.3054   11.1482 C   0  0  0  0  0  0  0  0  0  0  0  0
   15.3543    9.7726    9.9087 C   0  0  0  0  0  0  0  0  0  0  0  0
   15.5234   10.4732    8.7488 O   0  0  0  0  0  0  0  0  0  0  0  0
   14.6710    8.5694    9.7854 C   0  0  0  0  0  0  0  0  0  0  0  0
   14.4279    7.8187   10.9175 C   0  0  0  0  0  0  0  0  0  0  0  0
   14.7848    8.3361   12.1613 C   0  0  0  0  0  0  0  0  0  0  0  0
   15.4180    9.5903   12.2915 C   0  0  0  0  0  0  0  0  0  0  0  0
   15.6809   10.1171   14.0862 Br  0  0  0  0  0  0  0  0  0  0  0  0
   19.3130   13.8165   12.1304 C   0  0  0  0  0  0  0  0  0  0  0  0
   18.4222   14.9881   13.0311 Cl  0  0  0  0  0  0  0  0  0  0  0  0
   20.6619   14.1318   11.8682 C   0  0  0  0  0  0  0  0  0  0  0  0
  1  2  1  0
  2  3  2  0
  2  4  1  0
  4  5  2  0
  5  6  1  0
  6  7  1  0
  6  8  2  0
  8  9  1  0
  9 10  2  0
  9 11  1  0
 11 12  1  0
 12 13  2  0
 13 14  1  0
 13 15  1  0
 15 16  2  0
 16 17  1  0
 17 18  2  0
 18 19  1  0
  8 20  1  0
 20 21  1  0
 20 22  2  0
 22  4  1  0
 18 12  1  0
M  END
>  <ref_pdb>  (19) 
c0270a

>  <inchikey>  (19) 
VKBULLRWWDQECA-UHFFFAOYSA-N

>  <original ID>  (19) 
VKBULLRWWDQECA-UHFFFAOYSA-N

>  <generation_date>  (19) 
None

>  <alias>  (19) 
None

>  <tags>  (19) 
[]

>  <ref_mols>  (19) 
c0692a,c1371a

>  <ref_url>  (19) 
None

>  <submitter_name>  (19) 
None

>  <exports>  (19) 
nan

>  <original SMILES>  (19) 
NC(=O)c1cc(Cl)c(C(=O)Nc2c(O)cccc2Br)c(Cl)c1

>  <method>  (19) 
None

>  <submitter_email>  (19) 
None

>  <HIPPO ID>  (19) 
12354

$$$$
UJYGJTOQGTVDNO-UHFFFAOYSA-N
     RDKit          3D

 23 24  0  0  0  0  0  0  0  0999 V2000
   13.5485    6.6793   11.5354 C   0  0  0  0  0  0  0  0  0  0  0  0
   14.3873    7.9212   11.4372 C   0  0  0  0  0  0  0  0  0  0  0  0
   14.8328    8.3064   10.1777 C   0  0  0  0  0  0  0  0  0  0  0  0
   15.6005    9.4580    9.9939 C   0  0  0  0  0  0  0  0  0  0  0  0
   16.1234    9.6232    8.7152 N   0  0  0  0  0  0  0  0  0  0  0  0
   15.9922   10.2326   11.1047 C   0  0  0  0  0  0  0  0  0  0  0  0
   16.9437   11.2685   10.9031 N   0  0  0  0  0  0  0  0  0  0  0  0
   17.5347   12.0835   11.8629 C   0  0  0  0  0  0  0  0  0  0  0  0
   17.0554   12.2944   12.9707 O   0  0  0  0  0  0  0  0  0  0  0  0
   18.8987   12.6637   11.5665 C   0  0  0  0  0  0  0  0  0  0  0  0
   19.8220   11.9441   10.8121 C   0  0  0  0  0  0  0  0  0  0  0  0
   19.4270   10.5799    9.9474 Cl  0  0  0  0  0  0  0  0  0  0  0  0
   21.1454   12.3015   10.6401 C   0  0  0  0  0  0  0  0  0  0  0  0
   21.5953   13.4614   11.2050 C   0  0  0  0  0  0  0  0  0  0  0  0
   22.9819   13.7962   10.8744 C   0  0  0  0  0  0  0  0  0  0  0  0
   23.7045   14.3692   11.8692 N   0  0  0  0  0  0  0  0  0  0  0  0
   23.4367   13.5322    9.7724 O   0  0  0  0  0  0  0  0  0  0  0  0
   20.7257   14.2443   11.9654 C   0  0  0  0  0  0  0  0  0  0  0  0
   19.3837   13.8413   12.1497 C   0  0  0  0  0  0  0  0  0  0  0  0
   18.3788   14.9198   13.0467 Cl  0  0  0  0  0  0  0  0  0  0  0  0
   15.5179    9.8785   12.3643 C   0  0  0  0  0  0  0  0  0  0  0  0
   14.7469    8.7220   12.5304 C   0  0  0  0  0  0  0  0  0  0  0  0
   14.2185    8.3519   14.1343 Cl  0  0  0  0  0  0  0  0  0  0  0  0
  1  2  1  0
  2  3  2  0
  3  4  1  0
  4  5  1  0
  4  6  2  0
  6  7  1  0
  7  8  1  0
  8  9  2  0
  8 10  1  0
 10 11  2  0
 11 12  1  0
 11 13  1  0
 13 14  2  0
 14 15  1  0
 15 16  1  0
 15 17  2  0
 14 18  1  0
 18 19  2  0
 19 20  1  0
  6 21  1  0
 21 22  2  0
 22 23  1  0
 22  2  1  0
 19 10  1  0
M  END
>  <ref_pdb>  (20) 
c0270a

>  <inchikey>  (20) 
UJYGJTOQGTVDNO-UHFFFAOYSA-N

>  <original ID>  (20) 
UJYGJTOQGTVDNO-UHFFFAOYSA-N

>  <generation_date>  (20) 
None

>  <alias>  (20) 
None

>  <tags>  (20) 
[]

>  <ref_mols>  (20) 
c0692a,c1371a

>  <ref_url>  (20) 
None

>  <submitter_name>  (20) 
None

>  <exports>  (20) 
nan

>  <original SMILES>  (20) 
Cc1cc(N)c(NC(=O)c2c(Cl)cc(C(N)=O)cc2Cl)cc1Cl

>  <method>  (20) 
None

>  <submitter_email>  (20) 
None

>  <HIPPO ID>  (20) 
13078

$$$$
ADEUBRHKTUYXJN-UHFFFAOYSA-N
     RDKit          3D

 23 24  0  0  0  0  0  0  0  0999 V2000
   13.7334    8.5046    8.7926 C   0  0  0  0  0  0  0  0  0  0  0  0
   14.5757    8.7741    9.9926 C   0  0  0  0  0  0  0  0  0  0  0  0
   15.4284    9.8839    9.9767 C   0  0  0  0  0  0  0  0  0  0  0  0
   15.9824   10.3981   11.1576 C   0  0  0  0  0  0  0  0  0  0  0  0
   16.9395   11.4271   10.9700 N   0  0  0  0  0  0  0  0  0  0  0  0
   17.5597   12.2381   11.9030 C   0  0  0  0  0  0  0  0  0  0  0  0
   17.0441   12.5484   12.9715 O   0  0  0  0  0  0  0  0  0  0  0  0
   18.9514   12.7362   11.5960 C   0  0  0  0  0  0  0  0  0  0  0  0
   19.8311   11.9663   10.8353 C   0  0  0  0  0  0  0  0  0  0  0  0
   19.3623   10.6021    9.9997 Cl  0  0  0  0  0  0  0  0  0  0  0  0
   21.1629   12.2765   10.6310 C   0  0  0  0  0  0  0  0  0  0  0  0
   21.6620   13.4325   11.1652 C   0  0  0  0  0  0  0  0  0  0  0  0
   23.0455   13.7337   10.7923 C   0  0  0  0  0  0  0  0  0  0  0  0
   23.8166   14.2715   11.7697 N   0  0  0  0  0  0  0  0  0  0  0  0
   23.4532   13.4777    9.6705 O   0  0  0  0  0  0  0  0  0  0  0  0
   20.8378   14.2564   11.9321 C   0  0  0  0  0  0  0  0  0  0  0  0
   19.4884   13.9050   12.1501 C   0  0  0  0  0  0  0  0  0  0  0  0
   18.5420   15.0381   13.0441 Cl  0  0  0  0  0  0  0  0  0  0  0  0
   15.6208    9.8168   12.3838 C   0  0  0  0  0  0  0  0  0  0  0  0
   16.1217   10.2502   13.6212 N   0  0  0  0  0  0  0  0  0  0  0  0
   14.9394    8.5903   12.3622 C   0  0  0  0  0  0  0  0  0  0  0  0
   14.4218    8.0677   11.1787 C   0  0  0  0  0  0  0  0  0  0  0  0
   13.4951    6.6098   11.2532 Cl  0  0  0  0  0  0  0  0  0  0  0  0
  1  2  1  0
  2  3  2  0
  3  4  1  0
  4  5  1  0
  5  6  1  0
  6  7  2  0
  6  8  1  0
  8  9  2  0
  9 10  1  0
  9 11  1  0
 11 12  2  0
 12 13  1  0
 13 14  1  0
 13 15  2  0
 12 16  1  0
 16 17  2  0
 17 18  1  0
  4 19  2  0
 19 20  1  0
 19 21  1  0
 21 22  2  0
 22 23  1  0
 22  2  1  0
 17  8  1  0
M  END
>  <ref_pdb>  (21) 
c0270a

>  <inchikey>  (21) 
ADEUBRHKTUYXJN-UHFFFAOYSA-N

>  <original ID>  (21) 
ADEUBRHKTUYXJN-UHFFFAOYSA-N

>  <generation_date>  (21) 
None

>  <alias>  (21) 
None

>  <tags>  (21) 
[]

>  <ref_mols>  (21) 
c0692a,c1371a

>  <ref_url>  (21) 
None

>  <submitter_name>  (21) 
None

>  <exports>  (21) 
nan

>  <original SMILES>  (21) 
Cc1cc(NC(=O)c2c(Cl)cc(C(N)=O)cc2Cl)c(N)cc1Cl

>  <method>  (21) 
None

>  <submitter_email>  (21) 
None

>  <HIPPO ID>  (21) 
13079

$$$$
HTLAYWFVVBTOCO-UHFFFAOYSA-N
     RDKit          3D

 23 24  0  0  0  0  0  0  0  0999 V2000
   13.5361    6.6923   11.5238 C   0  0  0  0  0  0  0  0  0  0  0  0
   14.3767    7.9228   11.3856 C   0  0  0  0  0  0  0  0  0  0  0  0
   14.8507    8.2879   10.1377 C   0  0  0  0  0  0  0  0  0  0  0  0
   15.6175    9.4424    9.9678 C   0  0  0  0  0  0  0  0  0  0  0  0
   16.1618    9.6050    8.6986 N   0  0  0  0  0  0  0  0  0  0  0  0
   15.9838   10.2290   11.0829 C   0  0  0  0  0  0  0  0  0  0  0  0
   16.9410   11.2611   10.8923 N   0  0  0  0  0  0  0  0  0  0  0  0
   17.5273   12.0720   11.8585 C   0  0  0  0  0  0  0  0  0  0  0  0
   17.0471   12.2733   12.9675 O   0  0  0  0  0  0  0  0  0  0  0  0
   18.8906   12.6578   11.5668 C   0  0  0  0  0  0  0  0  0  0  0  0
   19.8181   11.9432   10.8127 C   0  0  0  0  0  0  0  0  0  0  0  0
   19.4310   10.5790    9.9450 Cl  0  0  0  0  0  0  0  0  0  0  0  0
   21.1405   12.3055   10.6435 C   0  0  0  0  0  0  0  0  0  0  0  0
   21.5859   13.4652   11.2120 C   0  0  0  0  0  0  0  0  0  0  0  0
   22.9728   13.8033   10.8854 C   0  0  0  0  0  0  0  0  0  0  0  0
   23.6901   14.3817   11.8810 N   0  0  0  0  0  0  0  0  0  0  0  0
   23.4329   13.5372    9.7860 O   0  0  0  0  0  0  0  0  0  0  0  0
   20.7121   14.2435   11.9724 C   0  0  0  0  0  0  0  0  0  0  0  0
   19.3709   13.8356   12.1533 C   0  0  0  0  0  0  0  0  0  0  0  0
   18.3604   14.9089   13.0501 Cl  0  0  0  0  0  0  0  0  0  0  0  0
   15.4687    9.8943   12.3294 C   0  0  0  0  0  0  0  0  0  0  0  0
   14.6918    8.7459   12.4674 C   0  0  0  0  0  0  0  0  0  0  0  0
   14.1703    8.4735   13.6712 F   0  0  0  0  0  0  0  0  0  0  0  0
  1  2  1  0
  2  3  2  0
  3  4  1  0
  4  5  1  0
  4  6  2  0
  6  7  1  0
  7  8  1  0
  8  9  2  0
  8 10  1  0
 10 11  2  0
 11 12  1  0
 11 13  1  0
 13 14  2  0
 14 15  1  0
 15 16  1  0
 15 17  2  0
 14 18  1  0
 18 19  2  0
 19 20  1  0
  6 21  1  0
 21 22  2  0
 22 23  1  0
 22  2  1  0
 19 10  1  0
M  END
>  <ref_pdb>  (22) 
c0270a

>  <inchikey>  (22) 
HTLAYWFVVBTOCO-UHFFFAOYSA-N

>  <original ID>  (22) 
HTLAYWFVVBTOCO-UHFFFAOYSA-N

>  <generation_date>  (22) 
None

>  <alias>  (22) 
None

>  <tags>  (22) 
[]

>  <ref_mols>  (22) 
c0692a,c1371a

>  <ref_url>  (22) 
None

>  <submitter_name>  (22) 
None

>  <exports>  (22) 
nan

>  <original SMILES>  (22) 
Cc1cc(N)c(NC(=O)c2c(Cl)cc(C(N)=O)cc2Cl)cc1F

>  <method>  (22) 
None

>  <submitter_email>  (22) 
None

>  <HIPPO ID>  (22) 
13213

$$$$
ANIYSDJXDHCPAP-UHFFFAOYSA-N
     RDKit          3D

 23 24  0  0  0  0  0  0  0  0999 V2000
   23.6401   14.2170   11.6373 N   0  0  0  0  0  0  0  0  0  0  0  0
   22.8641   13.6308   10.6909 C   0  0  0  0  0  0  0  0  0  0  0  0
   23.2564   13.3659    9.5660 O   0  0  0  0  0  0  0  0  0  0  0  0
   21.4913   13.3069   11.0955 C   0  0  0  0  0  0  0  0  0  0  0  0
   20.9794   12.1373   10.5893 C   0  0  0  0  0  0  0  0  0  0  0  0
   19.6418   11.8491   10.8010 C   0  0  0  0  0  0  0  0  0  0  0  0
   19.0853   10.4896   10.0042 Cl  0  0  0  0  0  0  0  0  0  0  0  0
   18.7848   12.6425   11.5597 C   0  0  0  0  0  0  0  0  0  0  0  0
   17.4233   12.1180   11.9290 C   0  0  0  0  0  0  0  0  0  0  0  0
   17.0771   12.2810   13.0934 O   0  0  0  0  0  0  0  0  0  0  0  0
   16.7113   11.4000   10.9761 N   0  0  0  0  0  0  0  0  0  0  0  0
   15.8171   10.2957   11.1485 C   0  0  0  0  0  0  0  0  0  0  0  0
   15.4594    9.6131    9.9620 C   0  0  0  0  0  0  0  0  0  0  0  0
   15.7901   10.1243    8.7737 F   0  0  0  0  0  0  0  0  0  0  0  0
   14.7636    8.4121    9.9553 C   0  0  0  0  0  0  0  0  0  0  0  0
   14.4110    7.8400   11.1587 C   0  0  0  0  0  0  0  0  0  0  0  0
   14.6815    8.5379   12.3323 C   0  0  0  0  0  0  0  0  0  0  0  0
   14.1577    8.0671   13.4753 F   0  0  0  0  0  0  0  0  0  0  0  0
   15.3789    9.7623   12.3662 C   0  0  0  0  0  0  0  0  0  0  0  0
   15.3901   10.4598   13.5754 N   0  0  0  0  0  0  0  0  0  0  0  0
   19.3353   13.8087   12.1020 C   0  0  0  0  0  0  0  0  0  0  0  0
   18.4030   14.9371   13.0150 Cl  0  0  0  0  0  0  0  0  0  0  0  0
   20.6804   14.1504   11.8582 C   0  0  0  0  0  0  0  0  0  0  0  0
  1  2  1  0
  2  3  2  0
  2  4  1  0
  4  5  2  0
  5  6  1  0
  6  7  1  0
  6  8  2  0
  8  9  1  0
  9 10  2  0
  9 11  1  0
 11 12  1  0
 12 13  2  0
 13 14  1  0
 13 15  1  0
 15 16  2  0
 16 17  1  0
 17 18  1  0
 17 19  2  0
 19 20  1  0
  8 21  1  0
 21 22  1  0
 21 23  2  0
 23  4  1  0
 19 12  1  0
M  END
>  <ref_pdb>  (23) 
c0270a

>  <inchikey>  (23) 
ANIYSDJXDHCPAP-UHFFFAOYSA-N

>  <original ID>  (23) 
ANIYSDJXDHCPAP-UHFFFAOYSA-N

>  <generation_date>  (23) 
None

>  <alias>  (23) 
None

>  <tags>  (23) 
[]

>  <ref_mols>  (23) 
c0692a,c1371a

>  <ref_url>  (23) 
None

>  <submitter_name>  (23) 
None

>  <exports>  (23) 
nan

>  <original SMILES>  (23) 
NC(=O)c1cc(Cl)c(C(=O)Nc2c(F)ccc(F)c2N)c(Cl)c1

>  <method>  (23) 
None

>  <submitter_email>  (23) 
None

>  <HIPPO ID>  (23) 
13221

$$$$
SUMULVPEHAXQGR-UHFFFAOYSA-N
     RDKit          3D

 23 24  0  0  0  0  0  0  0  0999 V2000
   23.9005   14.1218   11.5427 N   0  0  0  0  0  0  0  0  0  0  0  0
   23.0599   13.6038   10.6140 C   0  0  0  0  0  0  0  0  0  0  0  0
   23.3856   13.3606    9.4635 O   0  0  0  0  0  0  0  0  0  0  0  0
   21.6959   13.3221   11.0682 C   0  0  0  0  0  0  0  0  0  0  0  0
   21.1370   12.1633   10.5852 C   0  0  0  0  0  0  0  0  0  0  0  0
   19.8023   11.9126   10.8448 C   0  0  0  0  0  0  0  0  0  0  0  0
   19.1861   10.5622   10.0558 Cl  0  0  0  0  0  0  0  0  0  0  0  0
   19.0008   12.7455   11.6323 C   0  0  0  0  0  0  0  0  0  0  0  0
   17.6216   12.3022   12.0313 C   0  0  0  0  0  0  0  0  0  0  0  0
   17.2325   12.5245   13.1704 O   0  0  0  0  0  0  0  0  0  0  0  0
   16.9103   11.5885   11.0966 N   0  0  0  0  0  0  0  0  0  0  0  0
   15.9604   10.5620   11.2746 C   0  0  0  0  0  0  0  0  0  0  0  0
   15.4987    9.9994   10.0809 C   0  0  0  0  0  0  0  0  0  0  0  0
   14.6802    8.8822   10.1086 C   0  0  0  0  0  0  0  0  0  0  0  0
   13.6304    8.5252    8.6167 Br  0  0  0  0  0  0  0  0  0  0  0  0
   14.4419    8.1912   11.2779 C   0  0  0  0  0  0  0  0  0  0  0  0
   14.8132    8.8124   12.4512 C   0  0  0  0  0  0  0  0  0  0  0  0
   14.3671    8.2958   13.6400 O   0  0  0  0  0  0  0  0  0  0  0  0
   15.4994   10.0350   12.4836 C   0  0  0  0  0  0  0  0  0  0  0  0
   15.8248   10.5113   13.7705 N   0  0  0  0  0  0  0  0  0  0  0  0
   19.5940   13.9055   12.1353 C   0  0  0  0  0  0  0  0  0  0  0  0
   18.7085   15.0823   13.0324 Cl  0  0  0  0  0  0  0  0  0  0  0  0
   20.9381   14.2002   11.8473 C   0  0  0  0  0  0  0  0  0  0  0  0
  1  2  1  0
  2  3  2  0
  2  4  1  0
  4  5  2  0
  5  6  1  0
  6  7  1  0
  6  8  2  0
  8  9  1  0
  9 10  2  0
  9 11  1  0
 11 12  1  0
 12 13  2  0
 13 14  1  0
 14 15  1  0
 14 16  2  0
 16 17  1  0
 17 18  1  0
 17 19  2  0
 19 20  1  0
  8 21  1  0
 21 22  1  0
 21 23  2  0
 23  4  1  0
 19 12  1  0
M  END
>  <ref_pdb>  (24) 
c0270a

>  <inchikey>  (24) 
SUMULVPEHAXQGR-UHFFFAOYSA-N

>  <original ID>  (24) 
SUMULVPEHAXQGR-UHFFFAOYSA-N

>  <generation_date>  (24) 
None

>  <alias>  (24) 
None

>  <tags>  (24) 
[]

>  <ref_mols>  (24) 
c0692a,c1371a

>  <ref_url>  (24) 
None

>  <submitter_name>  (24) 
None

>  <exports>  (24) 
nan

>  <original SMILES>  (24) 
NC(=O)c1cc(Cl)c(C(=O)Nc2cc(Br)cc(O)c2N)c(Cl)c1

>  <method>  (24) 
None

>  <submitter_email>  (24) 
None

>  <HIPPO ID>  (24) 
13253

$$$$
VIWJJAUHSXYJBG-UHFFFAOYSA-N
     RDKit          3D

 23 24  0  0  0  0  0  0  0  0999 V2000
   13.5924    6.7836   10.7968 C   0  0  0  0  0  0  0  0  0  0  0  0
   14.4046    8.0376   10.8741 C   0  0  0  0  0  0  0  0  0  0  0  0
   14.8503    8.6518    9.7167 C   0  0  0  0  0  0  0  0  0  0  0  0
   15.6457    9.7901    9.7997 C   0  0  0  0  0  0  0  0  0  0  0  0
   15.9938   10.3779   11.0325 C   0  0  0  0  0  0  0  0  0  0  0  0
   16.9500   11.4271   10.9326 N   0  0  0  0  0  0  0  0  0  0  0  0
   17.6007   12.1539   11.9143 C   0  0  0  0  0  0  0  0  0  0  0  0
   17.1971   12.3134   13.0599 O   0  0  0  0  0  0  0  0  0  0  0  0
   18.9611   12.7104   11.5840 C   0  0  0  0  0  0  0  0  0  0  0  0
   19.8539   11.9632   10.8192 C   0  0  0  0  0  0  0  0  0  0  0  0
   19.4052   10.5966    9.9805 Cl  0  0  0  0  0  0  0  0  0  0  0  0
   21.1791   12.2966   10.6211 C   0  0  0  0  0  0  0  0  0  0  0  0
   21.6563   13.4547   11.1703 C   0  0  0  0  0  0  0  0  0  0  0  0
   23.0424   13.7666   10.8177 C   0  0  0  0  0  0  0  0  0  0  0  0
   23.7952   14.3076   11.8077 N   0  0  0  0  0  0  0  0  0  0  0  0
   23.4692   13.5118    9.7026 O   0  0  0  0  0  0  0  0  0  0  0  0
   20.8143   14.2612   11.9387 C   0  0  0  0  0  0  0  0  0  0  0  0
   19.4709   13.8839   12.1489 C   0  0  0  0  0  0  0  0  0  0  0  0
   18.4891   14.9809   13.0479 Cl  0  0  0  0  0  0  0  0  0  0  0  0
   15.4871    9.8138   12.2099 C   0  0  0  0  0  0  0  0  0  0  0  0
   15.5377   10.4315   13.4587 N   0  0  0  0  0  0  0  0  0  0  0  0
   14.7191    8.6375   12.0968 C   0  0  0  0  0  0  0  0  0  0  0  0
   14.1931    8.1188   13.2209 F   0  0  0  0  0  0  0  0  0  0  0  0
  1  2  1  0
  2  3  2  0
  3  4  1  0
  4  5  2  0
  5  6  1  0
  6  7  1  0
  7  8  2  0
  7  9  1  0
  9 10  2  0
 10 11  1  0
 10 12  1  0
 12 13  2  0
 13 14  1  0
 14 15  1  0
 14 16  2  0
 13 17  1  0
 17 18  2  0
 18 19  1  0
  5 20  1  0
 20 21  1  0
 20 22  2  0
 22 23  1  0
 22  2  1  0
 18  9  1  0
M  END
>  <ref_pdb>  (25) 
c0270a

>  <inchikey>  (25) 
VIWJJAUHSXYJBG-UHFFFAOYSA-N

>  <original ID>  (25) 
VIWJJAUHSXYJBG-UHFFFAOYSA-N

>  <generation_date>  (25) 
None

>  <alias>  (25) 
None

>  <tags>  (25) 
[]

>  <ref_mols>  (25) 
c0692a,c1371a

>  <ref_url>  (25) 
None

>  <submitter_name>  (25) 
None

>  <exports>  (25) 
nan

>  <original SMILES>  (25) 
Cc1ccc(NC(=O)c2c(Cl)cc(C(N)=O)cc2Cl)c(N)c1F

>  <method>  (25) 
None

>  <submitter_email>  (25) 
None

>  <HIPPO ID>  (25) 
13446

$$$$
SZQDCULWSIZYCD-UHFFFAOYSA-N
     RDKit          3D

 23 24  0  0  0  0  0  0  0  0999 V2000
   15.8621    8.7614   14.7479 C   0  0  0  0  0  0  0  0  0  0  0  0
   15.7129   10.3001   13.8153 S   0  0  0  0  0  0  0  0  0  0  0  0
   15.4717    9.7484   12.1341 C   0  0  0  0  0  0  0  0  0  0  0  0
   14.7247    8.5693   11.9183 C   0  0  0  0  0  0  0  0  0  0  0  0
   14.3851    8.1325   10.6392 C   0  0  0  0  0  0  0  0  0  0  0  0
   13.6054    7.0242   10.4998 O   0  0  0  0  0  0  0  0  0  0  0  0
   14.7658    8.8523    9.5356 C   0  0  0  0  0  0  0  0  0  0  0  0
   15.5600    9.9716    9.7246 C   0  0  0  0  0  0  0  0  0  0  0  0
   15.9549   10.4306   11.0034 C   0  0  0  0  0  0  0  0  0  0  0  0
   16.9366   11.4571   10.9316 N   0  0  0  0  0  0  0  0  0  0  0  0
   17.5537   12.2712   11.8655 C   0  0  0  0  0  0  0  0  0  0  0  0
   17.0340   12.6818   12.8902 O   0  0  0  0  0  0  0  0  0  0  0  0
   18.9795   12.7072   11.5604 C   0  0  0  0  0  0  0  0  0  0  0  0
   19.8344   11.8683   10.8450 C   0  0  0  0  0  0  0  0  0  0  0  0
   19.2946   10.5509    9.9834 Cl  0  0  0  0  0  0  0  0  0  0  0  0
   21.1799   12.1010   10.6343 C   0  0  0  0  0  0  0  0  0  0  0  0
   21.7025   13.2985   11.0312 C   0  0  0  0  0  0  0  0  0  0  0  0
   23.0550   13.5193   10.5234 C   0  0  0  0  0  0  0  0  0  0  0  0
   23.1543   14.4440    9.5397 N   0  0  0  0  0  0  0  0  0  0  0  0
   23.9823   12.8128   10.8770 O   0  0  0  0  0  0  0  0  0  0  0  0
   20.9110   14.2088   11.7294 C   0  0  0  0  0  0  0  0  0  0  0  0
   19.5626   13.8923   12.0295 C   0  0  0  0  0  0  0  0  0  0  0  0
   18.6757   15.0908   12.8983 Cl  0  0  0  0  0  0  0  0  0  0  0  0
  1  2  1  0
  2  3  1  0
  3  4  2  0
  4  5  1  0
  5  6  1  0
  5  7  2  0
  7  8  1  0
  8  9  2  0
  9 10  1  0
 10 11  1  0
 11 12  2  0
 11 13  1  0
 13 14  2  0
 14 15  1  0
 14 16  1  0
 16 17  2  0
 17 18  1  0
 18 19  1  0
 18 20  2  0
 17 21  1  0
 21 22  2  0
 22 23  1  0
  9  3  1  0
 22 13  1  0
M  END
>  <ref_pdb>  (26) 
c0270a

>  <inchikey>  (26) 
SZQDCULWSIZYCD-UHFFFAOYSA-N

>  <original ID>  (26) 
SZQDCULWSIZYCD-UHFFFAOYSA-N

>  <generation_date>  (26) 
None

>  <alias>  (26) 
None

>  <tags>  (26) 
[]

>  <ref_mols>  (26) 
c0692a,c1371a

>  <ref_url>  (26) 
None

>  <submitter_name>  (26) 
None

>  <exports>  (26) 
nan

>  <original SMILES>  (26) 
CSc1cc(O)ccc1NC(=O)c1c(Cl)cc(C(N)=O)cc1Cl

>  <method>  (26) 
None

>  <submitter_email>  (26) 
None

>  <HIPPO ID>  (26) 
13529

$$$$
FVEMIBNPGZYBBW-UHFFFAOYSA-N
     RDKit          3D

 23 24  0  0  0  0  0  0  0  0999 V2000
   14.2755    9.1205   14.4927 C   0  0  0  0  0  0  0  0  0  0  0  0
   14.3073    8.2448   13.3673 O   0  0  0  0  0  0  0  0  0  0  0  0
   14.8153    8.7840   12.2154 C   0  0  0  0  0  0  0  0  0  0  0  0
   14.4036    8.1716   11.0311 C   0  0  0  0  0  0  0  0  0  0  0  0
   14.7141    8.7640    9.8206 C   0  0  0  0  0  0  0  0  0  0  0  0
   14.1284    8.3307    8.7006 F   0  0  0  0  0  0  0  0  0  0  0  0
   15.5670    9.8520    9.7658 C   0  0  0  0  0  0  0  0  0  0  0  0
   16.0617   10.4115   10.9468 C   0  0  0  0  0  0  0  0  0  0  0  0
   17.0362   11.4200   10.8296 N   0  0  0  0  0  0  0  0  0  0  0  0
   17.6449   12.1421   11.8443 C   0  0  0  0  0  0  0  0  0  0  0  0
   17.1741   12.2892   12.9664 O   0  0  0  0  0  0  0  0  0  0  0  0
   19.0126   12.7041   11.5642 C   0  0  0  0  0  0  0  0  0  0  0  0
   19.9251   11.9716   10.8079 C   0  0  0  0  0  0  0  0  0  0  0  0
   19.5162   10.6019    9.9557 Cl  0  0  0  0  0  0  0  0  0  0  0  0
   21.2475   12.3209   10.6296 C   0  0  0  0  0  0  0  0  0  0  0  0
   21.7050   13.4763   11.1981 C   0  0  0  0  0  0  0  0  0  0  0  0
   23.0952   13.7947   10.8706 C   0  0  0  0  0  0  0  0  0  0  0  0
   23.8259   14.3435   11.8728 N   0  0  0  0  0  0  0  0  0  0  0  0
   23.5464   13.5362    9.7659 O   0  0  0  0  0  0  0  0  0  0  0  0
   20.8449   14.2661   11.9645 C   0  0  0  0  0  0  0  0  0  0  0  0
   19.5015   13.8755   12.1497 C   0  0  0  0  0  0  0  0  0  0  0  0
   18.4955   14.9524   13.0462 Cl  0  0  0  0  0  0  0  0  0  0  0  0
   15.6482    9.9002   12.1720 C   0  0  0  0  0  0  0  0  0  0  0  0
  1  2  1  0
  2  3  1  0
  3  4  2  0
  4  5  1  0
  5  6  1  0
  5  7  2  0
  7  8  1  0
  8  9  1  0
  9 10  1  0
 10 11  2  0
 10 12  1  0
 12 13  2  0
 13 14  1  0
 13 15  1  0
 15 16  2  0
 16 17  1  0
 17 18  1  0
 17 19  2  0
 16 20  1  0
 20 21  2  0
 21 22  1  0
  8 23  2  0
 23  3  1  0
 21 12  1  0
M  END
>  <ref_pdb>  (27) 
c0270a

>  <inchikey>  (27) 
FVEMIBNPGZYBBW-UHFFFAOYSA-N

>  <original ID>  (27) 
FVEMIBNPGZYBBW-UHFFFAOYSA-N

>  <generation_date>  (27) 
None

>  <alias>  (27) 
None

>  <tags>  (27) 
[]

>  <ref_mols>  (27) 
c0692a,c1371a

>  <ref_url>  (27) 
None

>  <submitter_name>  (27) 
None

>  <exports>  (27) 
nan

>  <original SMILES>  (27) 
COc1cc(F)cc(NC(=O)c2c(Cl)cc(C(N)=O)cc2Cl)c1

>  <method>  (27) 
None

>  <submitter_email>  (27) 
None

>  <HIPPO ID>  (27) 
13598

$$$$
AAIMCXHWVUQIFK-UHFFFAOYSA-N
     RDKit          3D

 23 24  0  0  0  0  0  0  0  0999 V2000
   12.9618    6.2591   11.6549 C   0  0  0  0  0  0  0  0  0  0  0  0
   13.4270    7.0156   10.5456 O   0  0  0  0  0  0  0  0  0  0  0  0
   14.2945    8.0432   10.7841 C   0  0  0  0  0  0  0  0  0  0  0  0
   14.7101    8.7204    9.6529 C   0  0  0  0  0  0  0  0  0  0  0  0
   15.5516    9.8248    9.7690 C   0  0  0  0  0  0  0  0  0  0  0  0
   15.9591   10.3389   11.0171 C   0  0  0  0  0  0  0  0  0  0  0  0
   16.9300   11.3711   10.9133 N   0  0  0  0  0  0  0  0  0  0  0  0
   17.5227   12.2182   11.8358 C   0  0  0  0  0  0  0  0  0  0  0  0
   16.9730   12.6274   12.8460 O   0  0  0  0  0  0  0  0  0  0  0  0
   18.9453   12.6792   11.5477 C   0  0  0  0  0  0  0  0  0  0  0  0
   19.8209   11.8581   10.8379 C   0  0  0  0  0  0  0  0  0  0  0  0
   19.3118   10.5416    9.9604 Cl  0  0  0  0  0  0  0  0  0  0  0  0
   21.1652   12.1089   10.6422 C   0  0  0  0  0  0  0  0  0  0  0  0
   21.6655   13.3123   11.0464 C   0  0  0  0  0  0  0  0  0  0  0  0
   23.0127   13.5591   10.5377 C   0  0  0  0  0  0  0  0  0  0  0  0
   23.0874   14.4782    9.5464 N   0  0  0  0  0  0  0  0  0  0  0  0
   23.9562   12.8769   10.8956 O   0  0  0  0  0  0  0  0  0  0  0  0
   20.8550   14.2073   11.7425 C   0  0  0  0  0  0  0  0  0  0  0  0
   19.5088   13.8687   12.0309 C   0  0  0  0  0  0  0  0  0  0  0  0
   18.6014   15.0461   12.9071 Cl  0  0  0  0  0  0  0  0  0  0  0  0
   15.4729    9.6940   12.1580 C   0  0  0  0  0  0  0  0  0  0  0  0
   15.7728   10.2191   13.9496 Br  0  0  0  0  0  0  0  0  0  0  0  0
   14.7017    8.5167   12.0301 C   0  0  0  0  0  0  0  0  0  0  0  0
  1  2  1  0
  2  3  1  0
  3  4  2  0
  4  5  1  0
  5  6  2  0
  6  7  1  0
  7  8  1  0
  8  9  2  0
  8 10  1  0
 10 11  2  0
 11 12  1  0
 11 13  1  0
 13 14  2  0
 14 15  1  0
 15 16  1  0
 15 17  2  0
 14 18  1  0
 18 19  2  0
 19 20  1  0
  6 21  1  0
 21 22  1  0
 21 23  2  0
 23  3  1  0
 19 10  1  0
M  END
>  <ref_pdb>  (28) 
c0270a

>  <inchikey>  (28) 
AAIMCXHWVUQIFK-UHFFFAOYSA-N

>  <original ID>  (28) 
AAIMCXHWVUQIFK-UHFFFAOYSA-N

>  <generation_date>  (28) 
None

>  <alias>  (28) 
None

>  <tags>  (28) 
[]

>  <ref_mols>  (28) 
c0692a,c1371a

>  <ref_url>  (28) 
None

>  <submitter_name>  (28) 
None

>  <exports>  (28) 
nan

>  <original SMILES>  (28) 
COc1ccc(NC(=O)c2c(Cl)cc(C(N)=O)cc2Cl)c(Br)c1

>  <method>  (28) 
None

>  <submitter_email>  (28) 
None

>  <HIPPO ID>  (28) 
13617

$$$$
NFDNKMZNQOJSQM-UHFFFAOYSA-N
     RDKit          3D

 23 24  0  0  0  0  0  0  0  0999 V2000
   15.7681   10.4866   13.8195 C   0  0  0  0  0  0  0  0  0  0  0  0
   15.5887    9.9021   12.4557 C   0  0  0  0  0  0  0  0  0  0  0  0
   14.8648    8.6945   12.4008 C   0  0  0  0  0  0  0  0  0  0  0  0
   14.4154    8.1933   11.1930 C   0  0  0  0  0  0  0  0  0  0  0  0
   13.5522    7.1655   11.1907 F   0  0  0  0  0  0  0  0  0  0  0  0
   14.6743    8.8948   10.0381 C   0  0  0  0  0  0  0  0  0  0  0  0
   13.6026    8.6138    8.5473 Br  0  0  0  0  0  0  0  0  0  0  0  0
   15.5497    9.9651   10.0438 C   0  0  0  0  0  0  0  0  0  0  0  0
   16.0308   10.4821   11.2540 C   0  0  0  0  0  0  0  0  0  0  0  0
   16.9887   11.5047   11.0798 N   0  0  0  0  0  0  0  0  0  0  0  0
   17.6388   12.3118   11.9873 C   0  0  0  0  0  0  0  0  0  0  0  0
   17.1809   12.6379   13.0717 O   0  0  0  0  0  0  0  0  0  0  0  0
   19.0249   12.7860   11.6248 C   0  0  0  0  0  0  0  0  0  0  0  0
   19.8719   11.9915   10.8495 C   0  0  0  0  0  0  0  0  0  0  0  0
   19.3578   10.6260   10.0359 Cl  0  0  0  0  0  0  0  0  0  0  0  0
   21.2032   12.2789   10.6132 C   0  0  0  0  0  0  0  0  0  0  0  0
   21.7315   13.4327   11.1258 C   0  0  0  0  0  0  0  0  0  0  0  0
   23.1122   13.7075   10.7255 C   0  0  0  0  0  0  0  0  0  0  0  0
   23.9179   14.2124   11.6916 N   0  0  0  0  0  0  0  0  0  0  0  0
   23.4861   13.4562    9.5911 O   0  0  0  0  0  0  0  0  0  0  0  0
   20.9376   14.2815   11.8976 C   0  0  0  0  0  0  0  0  0  0  0  0
   19.5889   13.9559   12.1478 C   0  0  0  0  0  0  0  0  0  0  0  0
   18.6743   15.1189   13.0364 Cl  0  0  0  0  0  0  0  0  0  0  0  0
  1  2  1  0
  2  3  2  0
  3  4  1  0
  4  5  1  0
  4  6  2  0
  6  7  1  0
  6  8  1  0
  8  9  2  0
  9 10  1  0
 10 11  1  0
 11 12  2  0
 11 13  1  0
 13 14  2  0
 14 15  1  0
 14 16  1  0
 16 17  2  0
 17 18  1  0
 18 19  1  0
 18 20  2  0
 17 21  1  0
 21 22  2  0
 22 23  1  0
  9  2  1  0
 22 13  1  0
M  END
>  <ref_pdb>  (29) 
c0270a

>  <inchikey>  (29) 
NFDNKMZNQOJSQM-UHFFFAOYSA-N

>  <original ID>  (29) 
NFDNKMZNQOJSQM-UHFFFAOYSA-N

>  <generation_date>  (29) 
None

>  <alias>  (29) 
None

>  <tags>  (29) 
[]

>  <ref_mols>  (29) 
c0692a,c1371a

>  <ref_url>  (29) 
None

>  <submitter_name>  (29) 
None

>  <exports>  (29) 
nan

>  <original SMILES>  (29) 
Cc1cc(F)c(Br)cc1NC(=O)c1c(Cl)cc(C(N)=O)cc1Cl

>  <method>  (29) 
None

>  <submitter_email>  (29) 
None

>  <HIPPO ID>  (29) 
13945

$$$$
CKUWHYCUMDEVDK-UHFFFAOYSA-N
     RDKit          3D

 23 24  0  0  0  0  0  0  0  0999 V2000
   23.7617   14.2075   11.6737 N   0  0  0  0  0  0  0  0  0  0  0  0
   22.9777   13.6273   10.7314 C   0  0  0  0  0  0  0  0  0  0  0  0
   23.3625   13.3546    9.6055 O   0  0  0  0  0  0  0  0  0  0  0  0
   21.6035   13.3186   11.1389 C   0  0  0  0  0  0  0  0  0  0  0  0
   21.0819   12.1565   10.6325 C   0  0  0  0  0  0  0  0  0  0  0  0
   19.7370   11.8872   10.8268 C   0  0  0  0  0  0  0  0  0  0  0  0
   19.2131   10.5292    9.9985 Cl  0  0  0  0  0  0  0  0  0  0  0  0
   18.8700   12.6996   11.5640 C   0  0  0  0  0  0  0  0  0  0  0  0
   17.4347   12.2747   11.8159 C   0  0  0  0  0  0  0  0  0  0  0  0
   16.8413   12.7278   12.7814 O   0  0  0  0  0  0  0  0  0  0  0  0
   16.8572   11.4126   10.9006 N   0  0  0  0  0  0  0  0  0  0  0  0
   15.9136   10.3632   11.0428 C   0  0  0  0  0  0  0  0  0  0  0  0
   15.5128    9.8084    9.8109 C   0  0  0  0  0  0  0  0  0  0  0  0
   14.7466    8.6529    9.7374 C   0  0  0  0  0  0  0  0  0  0  0  0
   14.3966    7.9907   10.9030 C   0  0  0  0  0  0  0  0  0  0  0  0
   13.4021    6.3830   10.7002 Br  0  0  0  0  0  0  0  0  0  0  0  0
   14.7437    8.5380   12.1499 C   0  0  0  0  0  0  0  0  0  0  0  0
   14.2253    7.7399   13.6138 Cl  0  0  0  0  0  0  0  0  0  0  0  0
   15.4804    9.7440   12.2268 C   0  0  0  0  0  0  0  0  0  0  0  0
   15.9051   10.3318   13.7969 Cl  0  0  0  0  0  0  0  0  0  0  0  0
   19.4399   13.8565   12.1147 C   0  0  0  0  0  0  0  0  0  0  0  0
   18.5397   15.0271   13.0084 Cl  0  0  0  0  0  0  0  0  0  0  0  0
   20.7975   14.1704   11.8940 C   0  0  0  0  0  0  0  0  0  0  0  0
  1  2  1  0
  2  3  2  0
  2  4  1  0
  4  5  2  0
  5  6  1  0
  6  7  1  0
  6  8  2  0
  8  9  1  0
  9 10  2  0
  9 11  1  0
 11 12  1  0
 12 13  2  0
 13 14  1  0
 14 15  2  0
 15 16  1  0
 15 17  1  0
 17 18  1  0
 17 19  2  0
 19 20  1  0
  8 21  1  0
 21 22  1  0
 21 23  2  0
 23  4  1  0
 19 12  1  0
M  END
>  <ref_pdb>  (30) 
c0270a

>  <inchikey>  (30) 
CKUWHYCUMDEVDK-UHFFFAOYSA-N

>  <original ID>  (30) 
CKUWHYCUMDEVDK-UHFFFAOYSA-N

>  <generation_date>  (30) 
None

>  <alias>  (30) 
None

>  <tags>  (30) 
[]

>  <ref_mols>  (30) 
c0692a,c1371a

>  <ref_url>  (30) 
None

>  <submitter_name>  (30) 
None

>  <exports>  (30) 
nan

>  <original SMILES>  (30) 
NC(=O)c1cc(Cl)c(C(=O)Nc2ccc(Br)c(Cl)c2Cl)c(Cl)c1

>  <method>  (30) 
None

>  <submitter_email>  (30) 
None

>  <HIPPO ID>  (30) 
13978

$$$$
MWFAJXAHMFCRES-UHFFFAOYSA-N
     RDKit          3D

 24 25  0  0  0  0  0  0  0  0999 V2000
   23.6633   14.2578   11.7020 N   0  0  0  0  0  0  0  0  0  0  0  0
   22.8952   13.6763   10.7467 C   0  0  0  0  0  0  0  0  0  0  0  0
   23.2953   13.4180    9.6227 O   0  0  0  0  0  0  0  0  0  0  0  0
   21.5225   13.3435   11.1418 C   0  0  0  0  0  0  0  0  0  0  0  0
   21.0265   12.1770   10.6178 C   0  0  0  0  0  0  0  0  0  0  0  0
   19.6930   11.8702   10.8220 C   0  0  0  0  0  0  0  0  0  0  0  0
   19.1752   10.5156    9.9894 Cl  0  0  0  0  0  0  0  0  0  0  0  0
   18.8212   12.6433   11.5896 C   0  0  0  0  0  0  0  0  0  0  0  0
   17.4500   12.1115   11.9273 C   0  0  0  0  0  0  0  0  0  0  0  0
   17.0421   12.2664   13.0718 O   0  0  0  0  0  0  0  0  0  0  0  0
   16.7923   11.3850   10.9433 N   0  0  0  0  0  0  0  0  0  0  0  0
   15.8939   10.3091   11.1219 C   0  0  0  0  0  0  0  0  0  0  0  0
   15.5731    9.5598    9.9834 C   0  0  0  0  0  0  0  0  0  0  0  0
   14.8454    8.3792   10.1000 C   0  0  0  0  0  0  0  0  0  0  0  0
   14.4428    7.9256   11.3552 C   0  0  0  0  0  0  0  0  0  0  0  0
   14.6790    8.7047   12.4856 C   0  0  0  0  0  0  0  0  0  0  0  0
   14.2684    8.4447   13.7571 O   0  0  0  0  0  0  0  0  0  0  0  0
   13.1546    7.6172   14.0893 C   0  0  0  0  0  0  0  0  0  0  0  0
   12.1972    8.4138   14.6455 F   0  0  0  0  0  0  0  0  0  0  0  0
   12.5770    6.9990   13.0328 F   0  0  0  0  0  0  0  0  0  0  0  0
   15.4149    9.8923   12.3608 C   0  0  0  0  0  0  0  0  0  0  0  0
   19.3546   13.8106   12.1441 C   0  0  0  0  0  0  0  0  0  0  0  0
   18.4010   14.9249   13.0513 Cl  0  0  0  0  0  0  0  0  0  0  0  0
   20.6985   14.1688   11.9113 C   0  0  0  0  0  0  0  0  0  0  0  0
  1  2  1  0
  2  3  2  0
  2  4  1  0
  4  5  2  0
  5  6  1  0
  6  7  1  0
  6  8  2  0
  8  9  1  0
  9 10  2  0
  9 11  1  0
 11 12  1  0
 12 13  2  0
 13 14  1  0
 14 15  2  0
 15 16  1  0
 16 17  1  0
 17 18  1  0
 18 19  1  0
 18 20  1  0
 16 21  2  0
  8 22  1  0
 22 23  1  0
 22 24  2  0
 24  4  1  0
 21 12  1  0
M  END
>  <ref_pdb>  (31) 
c0270a

>  <inchikey>  (31) 
MWFAJXAHMFCRES-UHFFFAOYSA-N

>  <original ID>  (31) 
MWFAJXAHMFCRES-UHFFFAOYSA-N

>  <generation_date>  (31) 
None

>  <alias>  (31) 
None

>  <tags>  (31) 
[]

>  <ref_mols>  (31) 
c0692a,c1371a

>  <ref_url>  (31) 
None

>  <submitter_name>  (31) 
None

>  <exports>  (31) 
nan

>  <original SMILES>  (31) 
NC(=O)c1cc(Cl)c(C(=O)Nc2cccc(OC(F)F)c2)c(Cl)c1

>  <method>  (31) 
None

>  <submitter_email>  (31) 
None

>  <HIPPO ID>  (31) 
14220

$$$$
KFTGNVACZZQQFY-UHFFFAOYSA-N
     RDKit          3D

 22 23  0  0  0  0  0  0  0  0999 V2000
   22.0033   11.5338   10.8330 C   0  0  0  0  0  0  0  0  0  0  0  0
   20.7142   12.0405   11.1452 O   0  0  0  0  0  0  0  0  0  0  0  0
   19.7835   11.3640   10.4719 C   0  0  0  0  0  0  0  0  0  0  0  0
   20.0073   10.4926    9.6577 O   0  0  0  0  0  0  0  0  0  0  0  0
   18.3530   11.7691   10.8686 C   0  0  0  0  0  0  0  0  0  0  0  0
   18.1826   12.6847   11.6621 O   0  0  0  0  0  0  0  0  0  0  0  0
   17.3611   10.9781   10.2976 N   0  0  0  0  0  0  0  0  0  0  0  0
   16.1353   10.8323   10.9448 C   0  0  0  0  0  0  0  0  0  0  0  0
   15.5218   11.8716   11.6560 C   0  0  0  0  0  0  0  0  0  0  0  0
   14.6272   11.5872   12.6704 C   0  0  0  0  0  0  0  0  0  0  0  0
   14.4137   10.2587   12.9985 C   0  0  0  0  0  0  0  0  0  0  0  0
   14.9487    9.2364   12.1936 C   0  0  0  0  0  0  0  0  0  0  0  0
   14.8151    7.8012   12.4896 C   0  0  0  0  0  0  0  0  0  0  0  0
   14.9569    6.9725   11.5969 O   0  0  0  0  0  0  0  0  0  0  0  0
   14.5891    7.4779   13.8026 N   0  0  0  0  0  0  0  0  0  0  0  0
   14.1680    6.1480   14.1500 C   0  0  0  0  0  0  0  0  0  0  0  0
   12.7077    6.0364   13.8501 C   0  0  0  0  0  0  0  0  0  0  0  0
   12.1103    5.3675   12.8004 C   0  0  0  0  0  0  0  0  0  0  0  0
   10.6917    5.4722   12.8293 C   0  0  0  0  0  0  0  0  0  0  0  0
   10.2528    6.2367   13.8860 C   0  0  0  0  0  0  0  0  0  0  0  0
   11.5470    6.8293   14.8332 S   0  0  0  0  0  0  0  0  0  0  0  0
   15.7239    9.5301   11.0888 C   0  0  0  0  0  0  0  0  0  0  0  0
  1  2  1  0
  2  3  1  0
  3  4  2  0
  3  5  1  0
  5  6  2  0
  5  7  1  0
  7  8  1  0
  8  9  2  0
  9 10  1  0
 10 11  2  0
 11 12  1  0
 12 13  1  0
 13 14  2  0
 13 15  1  0
 15 16  1  0
 16 17  1  0
 17 18  2  0
 18 19  1  0
 19 20  2  0
 20 21  1  0
 12 22  2  0
 22  8  1  0
 21 17  1  0
M  END
>  <ref_pdb>  (32) 
c0270a

>  <inchikey>  (32) 
KFTGNVACZZQQFY-UHFFFAOYSA-N

>  <original ID>  (32) 
KFTGNVACZZQQFY-UHFFFAOYSA-N

>  <generation_date>  (32) 
None

>  <alias>  (32) 
None

>  <tags>  (32) 
[]

>  <ref_mols>  (32) 
c0692a,c0892a

>  <ref_url>  (32) 
None

>  <submitter_name>  (32) 
None

>  <exports>  (32) 
['/opt/xchem-fragalysis-2/maxwin/CHIKV_HIPPO/hippo_prod/CHIKV_prod11_recipes/Recipe_1G8PPKY_poses.sdf']

>  <original SMILES>  (32) 
COC(=O)C(=O)Nc1cccc(C(=O)NCc2cccs2)c1

>  <method>  (32) 
None

>  <submitter_email>  (32) 
None

>  <HIPPO ID>  (32) 
15537

$$$$
JNAFQHXNLQQKAQ-UHFFFAOYSA-N
     RDKit          3D

 22 23  0  0  0  0  0  0  0  0999 V2000
   20.9032   11.9953   10.9476 C   0  0  0  0  0  0  0  0  0  0  0  0
   19.5548   12.0514   11.0170 C   0  0  0  0  0  0  0  0  0  0  0  0
   18.8258   13.0229   11.6254 O   0  0  0  0  0  0  0  0  0  0  0  0
   19.5202   14.2118   11.9138 C   0  0  0  0  0  0  0  0  0  0  0  0
   18.7846   11.0515   10.2302 C   0  0  0  0  0  0  0  0  0  0  0  0
   19.4400   10.3497    9.4704 O   0  0  0  0  0  0  0  0  0  0  0  0
   17.4235   10.9938   10.1099 N   0  0  0  0  0  0  0  0  0  0  0  0
   16.4853   10.8771   11.1196 C   0  0  0  0  0  0  0  0  0  0  0  0
   16.0184   11.9533   11.8669 C   0  0  0  0  0  0  0  0  0  0  0  0
   15.0476   11.7476   12.8418 C   0  0  0  0  0  0  0  0  0  0  0  0
   14.6038   10.4537   13.0990 C   0  0  0  0  0  0  0  0  0  0  0  0
   15.0693    9.3909   12.3144 C   0  0  0  0  0  0  0  0  0  0  0  0
   14.7494    7.9741   12.5445 C   0  0  0  0  0  0  0  0  0  0  0  0
   14.7748    7.1767   11.6141 O   0  0  0  0  0  0  0  0  0  0  0  0
   14.5114    7.6278   13.8479 N   0  0  0  0  0  0  0  0  0  0  0  0
   14.1286    6.2828   14.1840 C   0  0  0  0  0  0  0  0  0  0  0  0
   12.6775    6.1125   13.8746 C   0  0  0  0  0  0  0  0  0  0  0  0
   12.1141    5.4097   12.8280 C   0  0  0  0  0  0  0  0  0  0  0  0
   10.6923    5.4545   12.8494 C   0  0  0  0  0  0  0  0  0  0  0  0
   10.2168    6.2070   13.8989 C   0  0  0  0  0  0  0  0  0  0  0  0
   11.4801    6.8589   14.8488 S   0  0  0  0  0  0  0  0  0  0  0  0
   15.9439    9.6184   11.2727 C   0  0  0  0  0  0  0  0  0  0  0  0
  1  2  2  0
  2  3  1  0
  3  4  1  0
  2  5  1  0
  5  6  2  0
  5  7  1  0
  7  8  1  0
  8  9  2  0
  9 10  1  0
 10 11  2  0
 11 12  1  0
 12 13  1  0
 13 14  2  0
 13 15  1  0
 15 16  1  0
 16 17  1  0
 17 18  2  0
 18 19  1  0
 19 20  2  0
 20 21  1  0
 12 22  2  0
 22  8  1  0
 21 17  1  0
M  END
>  <ref_pdb>  (33) 
c0270a

>  <inchikey>  (33) 
JNAFQHXNLQQKAQ-UHFFFAOYSA-N

>  <original ID>  (33) 
JNAFQHXNLQQKAQ-UHFFFAOYSA-N

>  <generation_date>  (33) 
None

>  <alias>  (33) 
None

>  <tags>  (33) 
[]

>  <ref_mols>  (33) 
c0692a,c0892a

>  <ref_url>  (33) 
None

>  <submitter_name>  (33) 
None

>  <exports>  (33) 
['/opt/xchem-fragalysis-2/maxwin/CHIKV_HIPPO/hippo_prod/CHIKV_prod11_recipes/Recipe_1G8PPKY_poses.sdf']

>  <original SMILES>  (33) 
C=C(OC)C(=O)Nc1cccc(C(=O)NCc2cccs2)c1

>  <method>  (33) 
None

>  <submitter_email>  (33) 
None

>  <HIPPO ID>  (33) 
15549

$$$$
CGPJYDYSIFLRHX-INIZCTEOSA-N
     RDKit          3D

 24 26  0  0  0  0  0  0  0  0999 V2000
   14.3526    9.1549   16.7105 O   0  0  0  0  0  0  0  0  0  0  0  0
   14.6113    9.2171   15.5175 C   0  0  0  0  0  0  0  0  0  0  0  0
   14.6429    8.1175   14.6860 N   0  0  0  0  0  0  0  0  0  0  0  0
   14.2685    6.7986   15.1402 C   0  0  0  0  0  0  0  0  0  0  0  0
   13.0041    6.3841   14.4492 C   0  0  0  0  0  0  0  0  0  0  0  0
   12.8388    5.4460   13.4471 C   0  0  0  0  0  0  0  0  0  0  0  0
   11.4779    5.3066   13.0471 C   0  0  0  0  0  0  0  0  0  0  0  0
   10.6439    6.1325   13.7649 C   0  0  0  0  0  0  0  0  0  0  0  0
   11.4981    7.0679   14.9115 S   0  0  0  0  0  0  0  0  0  0  0  0
   14.9248   10.5247   14.8918 C   0  0  0  0  0  0  0  0  0  0  0  0
   15.5343   11.5547   15.6040 C   0  0  0  0  0  0  0  0  0  0  0  0
   15.9460   12.7153   14.9329 C   0  0  0  0  0  0  0  0  0  0  0  0
   15.8202   12.8166   13.5470 C   0  0  0  0  0  0  0  0  0  0  0  0
   15.1696   11.8020   12.8701 C   0  0  0  0  0  0  0  0  0  0  0  0
   15.1413   11.7241   11.4621 N   0  0  0  0  0  0  0  0  0  0  0  0
   16.2414   11.0155   10.9378 C   0  0  0  0  0  0  0  0  0  0  0  0
   17.4049   11.3830   11.0815 O   0  0  0  0  0  0  0  0  0  0  0  0
   15.8652    9.6647   10.3140 C   0  0  2  0  0  0  0  0  0  0  0  0
   14.8117    9.8326    9.2185 C   0  0  0  0  0  0  0  0  0  0  0  0
   13.9941    8.6031    9.0122 C   0  0  0  0  0  0  0  0  0  0  0  0
   14.0861    7.5580    9.8431 C   0  0  0  0  0  0  0  0  0  0  0  0
   14.9783    7.5567   11.0294 C   0  0  0  0  0  0  0  0  0  0  0  0
   15.3584    8.8705   11.4069 O   0  0  0  0  0  0  0  0  0  0  0  0
   14.6388   10.7146   13.5533 C   0  0  0  0  0  0  0  0  0  0  0  0
  1  2  2  0
  2  3  1  0
  3  4  1  0
  4  5  1  0
  5  6  2  0
  6  7  1  0
  7  8  2  0
  8  9  1  0
  2 10  1  0
 10 11  2  0
 11 12  1  0
 12 13  2  0
 13 14  1  0
 14 15  1  0
 15 16  1  0
 16 17  2  0
 18 16  1  1
 18 19  1  0
 19 20  1  0
 20 21  2  0
 21 22  1  0
 22 23  1  0
 14 24  2  0
  9  5  1  0
 24 10  1  0
 23 18  1  0
M  END
>  <ref_pdb>  (34) 
c0270a

>  <inchikey>  (34) 
CGPJYDYSIFLRHX-INIZCTEOSA-N

>  <original ID>  (34) 
CGPJYDYSIFLRHX-INIZCTEOSA-N

>  <generation_date>  (34) 
None

>  <alias>  (34) 
None

>  <tags>  (34) 
[]

>  <ref_mols>  (34) 
c0692a,c0892a

>  <ref_url>  (34) 
None

>  <submitter_name>  (34) 
None

>  <exports>  (34) 
nan

>  <original SMILES>  (34) 
O=C(NCc1cccs1)c1cccc(NC(=O)[C@@H]2CC=CCO2)c1

>  <method>  (34) 
None

>  <submitter_email>  (34) 
None

>  <HIPPO ID>  (34) 
15682

$$$$
CGPJYDYSIFLRHX-MRXNPFEDSA-N
     RDKit          3D

 24 26  0  0  0  0  0  0  0  0999 V2000
   15.8206    7.1684   12.8864 O   0  0  0  0  0  0  0  0  0  0  0  0
   15.5360    8.0936   13.6446 C   0  0  0  0  0  0  0  0  0  0  0  0
   14.6606    7.9306   14.6805 N   0  0  0  0  0  0  0  0  0  0  0  0
   14.1269    6.6190   14.9545 C   0  0  0  0  0  0  0  0  0  0  0  0
   12.8511    6.4028   14.2086 C   0  0  0  0  0  0  0  0  0  0  0  0
   12.6584    5.7059   13.0307 C   0  0  0  0  0  0  0  0  0  0  0  0
   11.2822    5.6103   12.6769 C   0  0  0  0  0  0  0  0  0  0  0  0
   10.4743    6.2647   13.5785 C   0  0  0  0  0  0  0  0  0  0  0  0
   11.3715    6.9974   14.8351 S   0  0  0  0  0  0  0  0  0  0  0  0
   16.0722    9.4608   13.4064 C   0  0  0  0  0  0  0  0  0  0  0  0
   15.9839   10.5875   14.2216 C   0  0  0  0  0  0  0  0  0  0  0  0
   16.3745   11.8428   13.7065 C   0  0  0  0  0  0  0  0  0  0  0  0
   16.8349   11.9826   12.3870 C   0  0  0  0  0  0  0  0  0  0  0  0
   16.8767   10.8601   11.5803 C   0  0  0  0  0  0  0  0  0  0  0  0
   17.0531   10.9340   10.1907 N   0  0  0  0  0  0  0  0  0  0  0  0
   16.2903   10.1077    9.3948 C   0  0  0  0  0  0  0  0  0  0  0  0
   16.7253    9.0654    8.9312 O   0  0  0  0  0  0  0  0  0  0  0  0
   14.8609   10.4218    9.0950 C   0  0  1  0  0  0  0  0  0  0  0  0
   14.0890    9.2047    9.5232 C   0  0  0  0  0  0  0  0  0  0  0  0
   14.1682    9.2812   11.0048 C   0  0  0  0  0  0  0  0  0  0  0  0
   14.0839   10.5002   11.6202 C   0  0  0  0  0  0  0  0  0  0  0  0
   13.9900   11.7906   10.8910 C   0  0  0  0  0  0  0  0  0  0  0  0
   14.2925   11.6396    9.5257 O   0  0  0  0  0  0  0  0  0  0  0  0
   16.5522    9.6268   12.1130 C   0  0  0  0  0  0  0  0  0  0  0  0
  1  2  2  0
  2  3  1  0
  3  4  1  0
  4  5  1  0
  5  6  2  0
  6  7  1  0
  7  8  2  0
  8  9  1  0
  2 10  1  0
 10 11  2  0
 11 12  1  0
 12 13  2  0
 13 14  1  0
 14 15  1  0
 15 16  1  0
 16 17  2  0
 18 16  1  1
 18 19  1  0
 19 20  1  0
 20 21  2  0
 21 22  1  0
 22 23  1  0
 14 24  2  0
  9  5  1  0
 24 10  1  0
 23 18  1  0
M  END
>  <ref_pdb>  (35) 
c0270a

>  <inchikey>  (35) 
CGPJYDYSIFLRHX-MRXNPFEDSA-N

>  <original ID>  (35) 
CGPJYDYSIFLRHX-MRXNPFEDSA-N

>  <generation_date>  (35) 
None

>  <alias>  (35) 
None

>  <tags>  (35) 
[]

>  <ref_mols>  (35) 
c0692a,c0892a

>  <ref_url>  (35) 
None

>  <submitter_name>  (35) 
None

>  <exports>  (35) 
nan

>  <original SMILES>  (35) 
O=C(NCc1cccs1)c1cccc(NC(=O)[C@H]2CC=CCO2)c1

>  <method>  (35) 
None

>  <submitter_email>  (35) 
None

>  <HIPPO ID>  (35) 
15683

$$$$
KLOFGNZUJGVABJ-UHFFFAOYSA-N
     RDKit          3D

 25 27  0  0  0  0  0  0  0  0999 V2000
   22.6925   12.0544   11.5245 C   0  0  0  0  0  0  0  0  0  0  0  0
   21.5456   11.5796   10.6614 C   0  0  0  0  0  0  0  0  0  0  0  0
   20.4106   11.4074   11.4920 O   0  0  0  0  0  0  0  0  0  0  0  0
   19.2805   12.3337   11.4276 C   0  0  0  0  0  0  0  0  0  0  0  0
   18.0096   11.5052   10.8845 C   0  0  0  0  0  0  0  0  0  0  0  0
   18.0811   10.3826   10.3703 O   0  0  0  0  0  0  0  0  0  0  0  0
   16.7133   12.0102   11.0100 N   0  0  0  0  0  0  0  0  0  0  0  0
   15.8876   11.4722   12.0164 C   0  0  0  0  0  0  0  0  0  0  0  0
   15.3678   12.2698   13.0275 C   0  0  0  0  0  0  0  0  0  0  0  0
   14.6404   11.6661   14.0494 C   0  0  0  0  0  0  0  0  0  0  0  0
   14.4467   10.2796   14.0440 C   0  0  0  0  0  0  0  0  0  0  0  0
   14.9340    9.5069   12.9827 C   0  0  0  0  0  0  0  0  0  0  0  0
   14.7994    8.0406   12.8591 C   0  0  0  0  0  0  0  0  0  0  0  0
   14.8656    7.4907   11.7655 O   0  0  0  0  0  0  0  0  0  0  0  0
   14.6257    7.3669   14.0379 N   0  0  0  0  0  0  0  0  0  0  0  0
   14.1922    5.9961   14.0245 C   0  0  0  0  0  0  0  0  0  0  0  0
   12.7211    5.9619   13.7499 C   0  0  0  0  0  0  0  0  0  0  0  0
   12.0782    5.3509   12.6921 C   0  0  0  0  0  0  0  0  0  0  0  0
   10.6649    5.5033   12.7549 C   0  0  0  0  0  0  0  0  0  0  0  0
   10.2732    6.2451   13.8456 C   0  0  0  0  0  0  0  0  0  0  0  0
   11.6051    6.7560   14.7869 S   0  0  0  0  0  0  0  0  0  0  0  0
   15.6100   10.1175   11.9526 C   0  0  0  0  0  0  0  0  0  0  0  0
   19.0020   13.0044   12.7997 C   0  0  0  0  0  0  0  0  0  0  0  0
   18.7806   14.3305   12.1398 C   0  0  0  0  0  0  0  0  0  0  0  0
   19.6597   13.7929   11.0139 C   0  0  0  0  0  0  0  0  0  0  0  0
  1  2  1  0
  2  3  1  0
  3  4  1  0
  4  5  1  0
  5  6  2  0
  5  7  1  0
  7  8  1  0
  8  9  2  0
  9 10  1  0
 10 11  2  0
 11 12  1  0
 12 13  1  0
 13 14  2  0
 13 15  1  0
 15 16  1  0
 16 17  1  0
 17 18  2  0
 18 19  1  0
 19 20  2  0
 20 21  1  0
 12 22  2  0
  4 23  1  0
 23 24  1  0
 24 25  1  0
 25  4  1  0
 22  8  1  0
 21 17  1  0
M  END
>  <ref_pdb>  (36) 
c0270a

>  <inchikey>  (36) 
KLOFGNZUJGVABJ-UHFFFAOYSA-N

>  <original ID>  (36) 
KLOFGNZUJGVABJ-UHFFFAOYSA-N

>  <generation_date>  (36) 
None

>  <alias>  (36) 
None

>  <tags>  (36) 
[]

>  <ref_mols>  (36) 
c0692a,c0892a

>  <ref_url>  (36) 
None

>  <submitter_name>  (36) 
None

>  <exports>  (36) 
nan

>  <original SMILES>  (36) 
CCOC1(C(=O)Nc2cccc(C(=O)NCc3cccs3)c2)CCC1

>  <method>  (36) 
None

>  <submitter_email>  (36) 
None

>  <HIPPO ID>  (36) 
15852

$$$$
NDWGGWQNXHVILB-UHFFFAOYSA-N
     RDKit          3D

 25 26  0  0  0  0  0  0  0  0999 V2000
   16.3229   12.9523   13.7053 C   0  0  0  0  0  0  0  0  0  0  0  0
   15.4258   13.4480   12.7214 O   0  0  0  0  0  0  0  0  0  0  0  0
   14.1405   12.8398   12.7902 C   0  0  0  0  0  0  0  0  0  0  0  0
   14.3040   11.3815   12.5902 C   0  0  0  0  0  0  0  0  0  0  0  0
   13.9460   10.5482   13.4145 O   0  0  0  0  0  0  0  0  0  0  0  0
   14.9836   11.1007   11.4416 N   0  0  0  0  0  0  0  0  0  0  0  0
   15.2470    9.7550   11.2558 C   0  0  0  0  0  0  0  0  0  0  0  0
   15.7888    9.0007   12.2516 C   0  0  0  0  0  0  0  0  0  0  0  0
   15.6347    7.6422   12.1202 C   0  0  0  0  0  0  0  0  0  0  0  0
   15.7046    6.8074   13.2847 C   0  0  0  0  0  0  0  0  0  0  0  0
   16.1579    5.6839   13.1465 O   0  0  0  0  0  0  0  0  0  0  0  0
   15.0571    7.3136   14.3847 N   0  0  0  0  0  0  0  0  0  0  0  0
   14.3369    6.3734   15.1951 C   0  0  0  0  0  0  0  0  0  0  0  0
   12.9326    6.3402   14.6733 C   0  0  0  0  0  0  0  0  0  0  0  0
   12.4396    5.6961   13.5530 C   0  0  0  0  0  0  0  0  0  0  0  0
   11.0581    5.9444   13.3911 C   0  0  0  0  0  0  0  0  0  0  0  0
   10.0783    5.2591   11.9587 Br  0  0  0  0  0  0  0  0  0  0  0  0
   10.5175    6.7356   14.3689 C   0  0  0  0  0  0  0  0  0  0  0  0
   11.7078    7.2221   15.4864 S   0  0  0  0  0  0  0  0  0  0  0  0
   15.1421    7.0161   10.9842 C   0  0  0  0  0  0  0  0  0  0  0  0
   14.6795    7.7962    9.9707 C   0  0  0  0  0  0  0  0  0  0  0  0
   14.6794    9.1749   10.1328 C   0  0  0  0  0  0  0  0  0  0  0  0
   14.0968   10.0761    9.1957 N   0  0  0  0  0  0  0  0  0  0  0  0
   12.9543    9.4166    8.5907 C   0  0  0  0  0  0  0  0  0  0  0  0
   15.2874   10.4002    8.4370 C   0  0  0  0  0  0  0  0  0  0  0  0
  1  2  1  0
  2  3  1  0
  3  4  1  0
  4  5  2  0
  4  6  1  0
  6  7  1  0
  7  8  2  0
  8  9  1  0
  9 10  1  0
 10 11  2  0
 10 12  1  0
 12 13  1  0
 13 14  1  0
 14 15  2  0
 15 16  1  0
 16 17  1  0
 16 18  2  0
 18 19  1  0
  9 20  2  0
 20 21  1  0
 21 22  2  0
 22 23  1  0
 23 24  1  0
 23 25  1  0
 22  7  1  0
 19 14  1  0
M  END
>  <ref_pdb>  (37) 
c0270a

>  <inchikey>  (37) 
NDWGGWQNXHVILB-UHFFFAOYSA-N

>  <original ID>  (37) 
NDWGGWQNXHVILB-UHFFFAOYSA-N

>  <generation_date>  (37) 
None

>  <alias>  (37) 
None

>  <tags>  (37) 
[]

>  <ref_mols>  (37) 
c0692a,c0892a

>  <ref_url>  (37) 
None

>  <submitter_name>  (37) 
None

>  <exports>  (37) 
['/opt/xchem-fragalysis-2/maxwin/CHIKV_HIPPO/hippo_prod/CHIKV_prod11_recipes/Recipe_1GERJCJ_poses.sdf']

>  <original SMILES>  (37) 
COCC(=O)Nc1cc(C(=O)NCc2cc(Br)cs2)ccc1N(C)C

>  <method>  (37) 
None

>  <submitter_email>  (37) 
None

>  <HIPPO ID>  (37) 
16006

$$$$
HGNZEYZNLGCCCJ-UHFFFAOYSA-N
     RDKit          3D

 26 27  0  0  0  0  0  0  0  0999 V2000
   14.0635    9.3382    8.6240 C   0  0  0  0  0  0  0  0  0  0  0  0
   14.2750    8.3605    9.4970 C   0  0  0  0  0  0  0  0  0  0  0  0
   13.3761    7.3147    9.5167 O   0  0  0  0  0  0  0  0  0  0  0  0
   13.7725    6.1448   10.2107 C   0  0  0  0  0  0  0  0  0  0  0  0
   15.4009    8.4733   10.4544 C   0  0  0  0  0  0  0  0  0  0  0  0
   16.0581    7.4926   10.7800 O   0  0  0  0  0  0  0  0  0  0  0  0
   15.4785    9.7011   11.0570 N   0  0  0  0  0  0  0  0  0  0  0  0
   15.5048    9.8269   12.4525 C   0  0  0  0  0  0  0  0  0  0  0  0
   15.5974    8.7168   13.2797 C   0  0  0  0  0  0  0  0  0  0  0  0
   15.5391    8.8572   14.6508 C   0  0  0  0  0  0  0  0  0  0  0  0
   15.6801    7.5964   15.3878 C   0  0  0  0  0  0  0  0  0  0  0  0
   16.6883    6.9192   15.2158 O   0  0  0  0  0  0  0  0  0  0  0  0
   14.6564    7.1281   16.1588 N   0  0  0  0  0  0  0  0  0  0  0  0
   13.3816    7.7309   16.4409 C   0  0  0  0  0  0  0  0  0  0  0  0
   12.2795    7.1407   15.6188 C   0  0  0  0  0  0  0  0  0  0  0  0
   12.2866    6.5823   14.3525 C   0  0  0  0  0  0  0  0  0  0  0  0
   10.9807    6.2111   13.9400 C   0  0  0  0  0  0  0  0  0  0  0  0
   10.6230    5.4537   12.2608 Br  0  0  0  0  0  0  0  0  0  0  0  0
   10.0138    6.4701   14.8741 C   0  0  0  0  0  0  0  0  0  0  0  0
   10.6847    7.1700   16.2740 S   0  0  0  0  0  0  0  0  0  0  0  0
   15.4010   10.1165   15.2193 C   0  0  0  0  0  0  0  0  0  0  0  0
   15.2880   11.2373   14.3855 C   0  0  0  0  0  0  0  0  0  0  0  0
   15.3464   11.1109   12.9875 C   0  0  0  0  0  0  0  0  0  0  0  0
   15.2794   12.2135   12.0884 N   0  0  0  0  0  0  0  0  0  0  0  0
   16.2078   13.2605   12.5050 C   0  0  0  0  0  0  0  0  0  0  0  0
   13.9030   12.6706   11.9242 C   0  0  0  0  0  0  0  0  0  0  0  0
  1  2  2  0
  2  3  1  0
  3  4  1  0
  2  5  1  0
  5  6  2  0
  5  7  1  0
  7  8  1  0
  8  9  2  0
  9 10  1  0
 10 11  1  0
 11 12  2  0
 11 13  1  0
 13 14  1  0
 14 15  1  0
 15 16  2  0
 16 17  1  0
 17 18  1  0
 17 19  2  0
 19 20  1  0
 10 21  2  0
 21 22  1  0
 22 23  2  0
 23 24  1  0
 24 25  1  0
 24 26  1  0
 23  8  1  0
 20 15  1  0
M  END
>  <ref_pdb>  (38) 
c0270a

>  <inchikey>  (38) 
HGNZEYZNLGCCCJ-UHFFFAOYSA-N

>  <original ID>  (38) 
HGNZEYZNLGCCCJ-UHFFFAOYSA-N

>  <generation_date>  (38) 
None

>  <alias>  (38) 
None

>  <tags>  (38) 
[]

>  <ref_mols>  (38) 
c0692a,c0892a

>  <ref_url>  (38) 
None

>  <submitter_name>  (38) 
None

>  <exports>  (38) 
nan

>  <original SMILES>  (38) 
C=C(OC)C(=O)Nc1cc(C(=O)NCc2cc(Br)cs2)ccc1N(C)C

>  <method>  (38) 
None

>  <submitter_email>  (38) 
None

>  <HIPPO ID>  (38) 
16081

$$$$
SQYARMQYUUUMJU-UHFFFAOYSA-N
     RDKit          3D

 26 27  0  0  0  0  0  0  0  0999 V2000
   18.5315   11.0030   10.6821 C   0  0  0  0  0  0  0  0  0  0  0  0
   17.2821   10.9564   11.3572 O   0  0  0  0  0  0  0  0  0  0  0  0
   16.9005   12.1080   11.9346 C   0  0  0  0  0  0  0  0  0  0  0  0
   17.6176   13.0763   12.1282 O   0  0  0  0  0  0  0  0  0  0  0  0
   15.3744   12.2293   12.0668 C   0  0  0  0  0  0  0  0  0  0  0  0
   14.8859   13.3553   12.0784 O   0  0  0  0  0  0  0  0  0  0  0  0
   14.5547   11.1340   11.9593 N   0  0  0  0  0  0  0  0  0  0  0  0
   14.9673    9.7975   11.9985 C   0  0  0  0  0  0  0  0  0  0  0  0
   15.4441    9.2584   13.1821 C   0  0  0  0  0  0  0  0  0  0  0  0
   15.7122    7.8898   13.2360 C   0  0  0  0  0  0  0  0  0  0  0  0
   16.2140    7.3746   14.5177 C   0  0  0  0  0  0  0  0  0  0  0  0
   17.0417    8.0373   15.1348 O   0  0  0  0  0  0  0  0  0  0  0  0
   15.7614    6.2194   15.0768 N   0  0  0  0  0  0  0  0  0  0  0  0
   14.8426    5.2163   14.6045 C   0  0  0  0  0  0  0  0  0  0  0  0
   13.4704    5.7398   14.3401 C   0  0  0  0  0  0  0  0  0  0  0  0
   12.6485    5.3605   13.2981 C   0  0  0  0  0  0  0  0  0  0  0  0
   11.3549    5.9004   13.4359 C   0  0  0  0  0  0  0  0  0  0  0  0
    9.9955    5.4197   12.2457 Br  0  0  0  0  0  0  0  0  0  0  0  0
   11.2170    6.7417   14.5080 C   0  0  0  0  0  0  0  0  0  0  0  0
   12.6877    6.8685   15.3751 S   0  0  0  0  0  0  0  0  0  0  0  0
   15.5648    7.0894   12.1013 C   0  0  0  0  0  0  0  0  0  0  0  0
   15.0702    7.6412   10.9226 C   0  0  0  0  0  0  0  0  0  0  0  0
   14.7635    9.0015   10.8525 C   0  0  0  0  0  0  0  0  0  0  0  0
   14.2934    9.6289    9.6727 N   0  0  0  0  0  0  0  0  0  0  0  0
   15.4364   10.1541    8.9394 C   0  0  0  0  0  0  0  0  0  0  0  0
   13.4097    8.8108    8.8542 C   0  0  0  0  0  0  0  0  0  0  0  0
  1  2  1  0
  2  3  1  0
  3  4  2  0
  3  5  1  0
  5  6  2  0
  5  7  1  0
  7  8  1  0
  8  9  2  0
  9 10  1  0
 10 11  1  0
 11 12  2  0
 11 13  1  0
 13 14  1  0
 14 15  1  0
 15 16  2  0
 16 17  1  0
 17 18  1  0
 17 19  2  0
 19 20  1  0
 10 21  2  0
 21 22  1  0
 22 23  2  0
 23 24  1  0
 24 25  1  0
 24 26  1  0
 23  8  1  0
 20 15  1  0
M  END
>  <ref_pdb>  (39) 
c0270a

>  <inchikey>  (39) 
SQYARMQYUUUMJU-UHFFFAOYSA-N

>  <original ID>  (39) 
SQYARMQYUUUMJU-UHFFFAOYSA-N

>  <generation_date>  (39) 
None

>  <alias>  (39) 
None

>  <tags>  (39) 
[]

>  <ref_mols>  (39) 
c0692a,c0892a

>  <ref_url>  (39) 
None

>  <submitter_name>  (39) 
None

>  <exports>  (39) 
nan

>  <original SMILES>  (39) 
COC(=O)C(=O)Nc1cc(C(=O)NCc2cc(Br)cs2)ccc1N(C)C

>  <method>  (39) 
None

>  <submitter_email>  (39) 
None

>  <HIPPO ID>  (39) 
16091

$$$$
VVIUCFFHLGOWHK-MRXNPFEDSA-N
     RDKit          3D

 28 29  0  0  0  0  0  0  0  0999 V2000
   13.3554   12.8772   10.9197 C   0  0  0  0  0  0  0  0  0  0  0  0
   13.5820   12.9876   12.2963 O   0  0  0  0  0  0  0  0  0  0  0  0
   14.2686   11.8994   12.8564 C   0  0  2  0  0  0  0  0  0  0  0  0
   15.6982   12.3354   13.1710 C   0  0  0  0  0  0  0  0  0  0  0  0
   16.4684   12.8133   12.3422 O   0  0  0  0  0  0  0  0  0  0  0  0
   16.0425   12.0844   14.5008 N   0  0  0  0  0  0  0  0  0  0  0  0
   16.0322   10.7136   14.8830 C   0  0  0  0  0  0  0  0  0  0  0  0
   16.5575    9.7632   14.0037 C   0  0  0  0  0  0  0  0  0  0  0  0
   16.4510    8.3896   14.2377 C   0  0  0  0  0  0  0  0  0  0  0  0
   15.7414    7.9481   15.3193 C   0  0  0  0  0  0  0  0  0  0  0  0
   15.0933    8.9052   16.0995 C   0  0  0  0  0  0  0  0  0  0  0  0
   13.8043    8.4441   16.6182 C   0  0  0  0  0  0  0  0  0  0  0  0
   13.5614    8.4186   17.8097 O   0  0  0  0  0  0  0  0  0  0  0  0
   12.9679    8.0538   15.5935 N   0  0  0  0  0  0  0  0  0  0  0  0
   11.8392    7.1950   15.8235 C   0  0  0  0  0  0  0  0  0  0  0  0
   11.5479    6.4439   14.5633 C   0  0  0  0  0  0  0  0  0  0  0  0
   12.4223    5.8131   13.6951 C   0  0  0  0  0  0  0  0  0  0  0  0
   11.7513    5.1987   12.6023 C   0  0  0  0  0  0  0  0  0  0  0  0
   10.3871    5.3524   12.6844 C   0  0  0  0  0  0  0  0  0  0  0  0
    9.9243    6.2473   14.0597 S   0  0  0  0  0  0  0  0  0  0  0  0
   15.3182   10.2818   15.9845 C   0  0  0  0  0  0  0  0  0  0  0  0
   14.3404   10.4767   12.2767 C   0  0  0  0  0  0  0  0  0  0  0  0
   14.1596    9.4734   12.9566 O   0  0  0  0  0  0  0  0  0  0  0  0
   14.6435   10.4756   10.9692 O   0  0  0  0  0  0  0  0  0  0  0  0
   14.9736    9.3122   10.1775 C   0  0  0  0  0  0  0  0  0  0  0  0
   16.4353    9.5339    9.8434 C   0  0  0  0  0  0  0  0  0  0  0  0
   14.1488    9.4406    8.9075 C   0  0  0  0  0  0  0  0  0  0  0  0
   14.7572    7.9209   10.7722 C   0  0  0  0  0  0  0  0  0  0  0  0
  1  2  1  0
  3  2  1  6
  3  4  1  0
  4  5  2  0
  4  6  1  0
  6  7  1  0
  7  8  2  0
  8  9  1  0
  9 10  2  0
 10 11  1  0
 11 12  1  0
 12 13  2  0
 12 14  1  0
 14 15  1  0
 15 16  1  0
 16 17  2  0
 17 18  1  0
 18 19  2  0
 19 20  1  0
 11 21  2  0
  3 22  1  0
 22 23  2  0
 22 24  1  0
 24 25  1  0
 25 26  1  0
 25 27  1  0
 25 28  1  0
 21  7  1  0
 20 16  1  0
M  END
>  <ref_pdb>  (40) 
c0270a

>  <inchikey>  (40) 
VVIUCFFHLGOWHK-MRXNPFEDSA-N

>  <original ID>  (40) 
VVIUCFFHLGOWHK-MRXNPFEDSA-N

>  <generation_date>  (40) 
None

>  <alias>  (40) 
None

>  <tags>  (40) 
[]

>  <ref_mols>  (40) 
c0692a,c0892a

>  <ref_url>  (40) 
None

>  <submitter_name>  (40) 
None

>  <exports>  (40) 
['/opt/xchem-fragalysis-2/maxwin/CHIKV_HIPPO/hippo_prod/CHIKV_prod11_recipes/Recipe_1GERJCJ_poses.sdf']

>  <original SMILES>  (40) 
CO[C@H](C(=O)Nc1cccc(C(=O)NCc2cccs2)c1)C(=O)OC(C)(C)C

>  <method>  (40) 
None

>  <submitter_email>  (40) 
None

>  <HIPPO ID>  (40) 
17036

$$$$
SNVFQFGCSUMATQ-UHFFFAOYSA-N
     RDKit          3D

 28 29  0  0  0  0  0  0  0  0999 V2000
   13.5690    6.2369    9.5934 C   0  0  0  0  0  0  0  0  0  0  0  0
   13.9996    7.6678    9.8845 C   0  0  0  0  0  0  0  0  0  0  0  0
   13.2214    8.7289    9.1180 C   0  0  0  0  0  0  0  0  0  0  0  0
   13.9764    7.6669   11.3989 C   0  0  0  0  0  0  0  0  0  0  0  0
   15.2934    7.9555    9.3460 O   0  0  0  0  0  0  0  0  0  0  0  0
   16.1771    8.4633   10.2107 C   0  0  0  0  0  0  0  0  0  0  0  0
   16.5581    7.8339   11.1881 O   0  0  0  0  0  0  0  0  0  0  0  0
   16.5671    9.8547    9.9052 C   0  0  0  0  0  0  0  0  0  0  0  0
   16.4690   10.3734   11.2250 O   0  0  0  0  0  0  0  0  0  0  0  0
   16.3507   11.7544   11.2984 C   0  0  0  0  0  0  0  0  0  0  0  0
   14.9039   12.1346   10.9153 C   0  0  0  0  0  0  0  0  0  0  0  0
   14.3495   11.7853    9.8794 O   0  0  0  0  0  0  0  0  0  0  0  0
   14.2090   12.8639   11.8440 N   0  0  0  0  0  0  0  0  0  0  0  0
   14.2231   12.3556   13.1502 C   0  0  0  0  0  0  0  0  0  0  0  0
   14.4269   13.1981   14.2222 C   0  0  0  0  0  0  0  0  0  0  0  0
   14.8141   12.6374   15.4379 C   0  0  0  0  0  0  0  0  0  0  0  0
   15.0062   11.2557   15.5628 C   0  0  0  0  0  0  0  0  0  0  0  0
   14.7070   10.4235   14.4962 C   0  0  0  0  0  0  0  0  0  0  0  0
   14.9363    8.9789   14.5758 C   0  0  0  0  0  0  0  0  0  0  0  0
   16.0324    8.5456   14.8721 O   0  0  0  0  0  0  0  0  0  0  0  0
   13.8431    8.1951   14.3925 N   0  0  0  0  0  0  0  0  0  0  0  0
   13.8925    6.7706   14.6196 C   0  0  0  0  0  0  0  0  0  0  0  0
   12.5622    6.2187   14.2165 C   0  0  0  0  0  0  0  0  0  0  0  0
   12.2814    5.2616   13.2629 C   0  0  0  0  0  0  0  0  0  0  0  0
   10.8829    5.0465   13.1099 C   0  0  0  0  0  0  0  0  0  0  0  0
   10.1398    5.8321   13.9593 C   0  0  0  0  0  0  0  0  0  0  0  0
   11.1225    6.8284   14.9341 S   0  0  0  0  0  0  0  0  0  0  0  0
   14.2741   10.9757   13.3150 C   0  0  0  0  0  0  0  0  0  0  0  0
  1  2  1  0
  2  3  1  0
  2  4  1  0
  2  5  1  0
  5  6  1  0
  6  7  2  0
  6  8  1  0
  8  9  1  0
  9 10  1  0
 10 11  1  0
 11 12  2  0
 11 13  1  0
 13 14  1  0
 14 15  2  0
 15 16  1  0
 16 17  2  0
 17 18  1  0
 18 19  1  0
 19 20  2  0
 19 21  1  0
 21 22  1  0
 22 23  1  0
 23 24  2  0
 24 25  1  0
 25 26  2  0
 26 27  1  0
 18 28  2  0
 28 14  1  0
 27 23  1  0
M  END
>  <ref_pdb>  (41) 
c0270a

>  <inchikey>  (41) 
SNVFQFGCSUMATQ-UHFFFAOYSA-N

>  <original ID>  (41) 
SNVFQFGCSUMATQ-UHFFFAOYSA-N

>  <generation_date>  (41) 
None

>  <alias>  (41) 
None

>  <tags>  (41) 
[]

>  <ref_mols>  (41) 
c0692a,c0892a

>  <ref_url>  (41) 
None

>  <submitter_name>  (41) 
None

>  <exports>  (41) 
nan

>  <original SMILES>  (41) 
CC(C)(C)OC(=O)COCC(=O)Nc1cccc(C(=O)NCc2cccs2)c1

>  <method>  (41) 
None

>  <submitter_email>  (41) 
None

>  <HIPPO ID>  (41) 
17071

$$$$
LPXUOYKYXKYEQI-SFHVURJKSA-N
     RDKit          3D

 28 30  0  0  0  0  0  0  0  0999 V2000
   16.2510   10.4176   10.2245 C   0  0  0  0  0  0  0  0  0  0  0  0
   15.1055   10.6913   11.0906 N   0  0  0  0  0  0  0  0  0  0  0  0
   14.2210   11.7710   10.7230 C   0  0  0  0  0  0  0  0  0  0  0  0
   15.4268   10.7019   12.4512 C   0  0  0  0  0  0  0  0  0  0  0  0
   15.7824   11.8618   13.1593 C   0  0  0  0  0  0  0  0  0  0  0  0
   15.9571   11.8187   14.5429 C   0  0  0  0  0  0  0  0  0  0  0  0
   15.8028   10.6046   15.1971 C   0  0  0  0  0  0  0  0  0  0  0  0
   15.9657   10.4329   16.6438 C   0  0  0  0  0  0  0  0  0  0  0  0
   16.8660   10.9949   17.2452 O   0  0  0  0  0  0  0  0  0  0  0  0
   15.0721    9.5433   17.2011 N   0  0  0  0  0  0  0  0  0  0  0  0
   15.4090    8.7887   18.3766 C   0  0  0  0  0  0  0  0  0  0  0  0
   15.2009    7.3379   18.0635 C   0  0  0  0  0  0  0  0  0  0  0  0
   15.6936    6.5937   17.0043 C   0  0  0  0  0  0  0  0  0  0  0  0
   15.2475    5.2554   17.0449 C   0  0  0  0  0  0  0  0  0  0  0  0
   15.6571    4.0286   15.6743 Br  0  0  0  0  0  0  0  0  0  0  0  0
   14.5596    4.9685   18.1943 C   0  0  0  0  0  0  0  0  0  0  0  0
   14.2499    6.3732   19.1129 S   0  0  0  0  0  0  0  0  0  0  0  0
   15.5290    9.4473   14.4907 C   0  0  0  0  0  0  0  0  0  0  0  0
   15.2867    9.4990   13.1465 C   0  0  0  0  0  0  0  0  0  0  0  0
   14.8648    8.3576   12.4666 N   0  0  0  0  0  0  0  0  0  0  0  0
   14.1815    7.3013   13.0407 C   0  0  0  0  0  0  0  0  0  0  0  0
   13.7893    7.2298   14.2032 O   0  0  0  0  0  0  0  0  0  0  0  0
   13.9765    6.1767   12.0579 C   0  0  2  0  0  0  0  0  0  0  0  0
   15.2377    5.3090   12.0164 C   0  0  0  0  0  0  0  0  0  0  0  0
   15.3224    4.5061   10.7598 C   0  0  0  0  0  0  0  0  0  0  0  0
   14.4871    4.7601    9.7448 C   0  0  0  0  0  0  0  0  0  0  0  0
   13.4504    5.8388    9.8131 C   0  0  0  0  0  0  0  0  0  0  0  0
   13.7628    6.8119   10.7922 O   0  0  0  0  0  0  0  0  0  0  0  0
  1  2  1  0
  2  3  1  0
  2  4  1  0
  4  5  2  0
  5  6  1  0
  6  7  2  0
  7  8  1  0
  8  9  2  0
  8 10  1  0
 10 11  1  0
 11 12  1  0
 12 13  2  0
 13 14  1  0
 14 15  1  0
 14 16  2  0
 16 17  1  0
  7 18  1  0
 18 19  2  0
 19 20  1  0
 20 21  1  0
 21 22  2  0
 23 21  1  1
 23 24  1  0
 24 25  1  0
 25 26  2  0
 26 27  1  0
 27 28  1  0
 19  4  1  0
 28 23  1  0
 17 12  1  0
M  END
>  <ref_pdb>  (42) 
c0270a

>  <inchikey>  (42) 
LPXUOYKYXKYEQI-SFHVURJKSA-N

>  <original ID>  (42) 
LPXUOYKYXKYEQI-SFHVURJKSA-N

>  <generation_date>  (42) 
None

>  <alias>  (42) 
None

>  <tags>  (42) 
[]

>  <ref_mols>  (42) 
c0692a,c0892a

>  <ref_url>  (42) 
None

>  <submitter_name>  (42) 
None

>  <exports>  (42) 
nan

>  <original SMILES>  (42) 
CN(C)c1ccc(C(=O)NCc2cc(Br)cs2)cc1NC(=O)[C@@H]1CC=CCO1

>  <method>  (42) 
None

>  <submitter_email>  (42) 
None

>  <HIPPO ID>  (42) 
17168

$$$$
LPXUOYKYXKYEQI-GOSISDBHSA-N
     RDKit          3D

 28 30  0  0  0  0  0  0  0  0999 V2000
   18.1651   12.8976   12.4508 C   0  0  0  0  0  0  0  0  0  0  0  0
   17.7514   11.5164   12.1818 N   0  0  0  0  0  0  0  0  0  0  0  0
   18.4574   10.9813   11.0080 C   0  0  0  0  0  0  0  0  0  0  0  0
   16.8451   10.8402   13.0096 C   0  0  0  0  0  0  0  0  0  0  0  0
   16.5495   11.3543   14.2955 C   0  0  0  0  0  0  0  0  0  0  0  0
   15.7166   10.7234   15.2173 C   0  0  0  0  0  0  0  0  0  0  0  0
   15.1510    9.5077   14.8896 C   0  0  0  0  0  0  0  0  0  0  0  0
   14.2820    8.8434   15.8690 C   0  0  0  0  0  0  0  0  0  0  0  0
   14.3929    9.0880   17.0625 O   0  0  0  0  0  0  0  0  0  0  0  0
   13.3449    7.9842   15.3609 N   0  0  0  0  0  0  0  0  0  0  0  0
   12.6026    7.1397   16.2477 C   0  0  0  0  0  0  0  0  0  0  0  0
   11.3404    6.7782   15.5570 C   0  0  0  0  0  0  0  0  0  0  0  0
   11.1735    5.9267   14.4843 C   0  0  0  0  0  0  0  0  0  0  0  0
    9.8065    5.7429   14.1972 C   0  0  0  0  0  0  0  0  0  0  0  0
    9.2577    4.5191   12.9009 Br  0  0  0  0  0  0  0  0  0  0  0  0
    8.9687    6.5010   14.9706 C   0  0  0  0  0  0  0  0  0  0  0  0
    9.8513    7.4240   16.0999 S   0  0  0  0  0  0  0  0  0  0  0  0
   15.4057    8.9438   13.6522 C   0  0  0  0  0  0  0  0  0  0  0  0
   16.1588    9.6385   12.7035 C   0  0  0  0  0  0  0  0  0  0  0  0
   16.1634    8.9954   11.4713 N   0  0  0  0  0  0  0  0  0  0  0  0
   15.9197    9.5504   10.2697 C   0  0  0  0  0  0  0  0  0  0  0  0
   15.8699    8.7852    9.3025 O   0  0  0  0  0  0  0  0  0  0  0  0
   15.4571   11.0084   10.1590 C   0  0  1  0  0  0  0  0  0  0  0  0
   13.9886   10.8878    9.9444 C   0  0  0  0  0  0  0  0  0  0  0  0
   13.1772   11.8838   10.7113 C   0  0  0  0  0  0  0  0  0  0  0  0
   13.6411   12.7597   11.5750 C   0  0  0  0  0  0  0  0  0  0  0  0
   15.0467   12.8420   11.8355 C   0  0  0  0  0  0  0  0  0  0  0  0
   15.8125   12.1521   10.8821 O   0  0  0  0  0  0  0  0  0  0  0  0
  1  2  1  0
  2  3  1  0
  2  4  1  0
  4  5  2  0
  5  6  1  0
  6  7  2  0
  7  8  1  0
  8  9  2  0
  8 10  1  0
 10 11  1  0
 11 12  1  0
 12 13  2  0
 13 14  1  0
 14 15  1  0
 14 16  2  0
 16 17  1  0
  7 18  1  0
 18 19  2  0
 19 20  1  0
 20 21  1  0
 21 22  2  0
 23 21  1  1
 23 24  1  0
 24 25  1  0
 25 26  2  0
 26 27  1  0
 27 28  1  0
 19  4  1  0
 28 23  1  0
 17 12  1  0
M  END
>  <ref_pdb>  (43) 
c0270a

>  <inchikey>  (43) 
LPXUOYKYXKYEQI-GOSISDBHSA-N

>  <original ID>  (43) 
LPXUOYKYXKYEQI-GOSISDBHSA-N

>  <generation_date>  (43) 
None

>  <alias>  (43) 
None

>  <tags>  (43) 
[]

>  <ref_mols>  (43) 
c0692a,c0892a

>  <ref_url>  (43) 
None

>  <submitter_name>  (43) 
None

>  <exports>  (43) 
nan

>  <original SMILES>  (43) 
CN(C)c1ccc(C(=O)NCc2cc(Br)cs2)cc1NC(=O)[C@H]1CC=CCO1

>  <method>  (43) 
None

>  <submitter_email>  (43) 
None

>  <HIPPO ID>  (43) 
17169

$$$$
UQMVBSSLPHGEIC-UHFFFAOYSA-N
     RDKit          3D

 29 31  0  0  0  0  0  0  0  0999 V2000
   15.9307   11.2768   15.6804 C   0  0  0  0  0  0  0  0  0  0  0  0
   16.0500   11.9279   14.3210 C   0  0  0  0  0  0  0  0  0  0  0  0
   16.8739   11.1243   13.4455 O   0  0  0  0  0  0  0  0  0  0  0  0
   16.9429   11.5787   12.0508 C   0  0  0  0  0  0  0  0  0  0  0  0
   15.5508   12.1612   11.6243 C   0  0  0  0  0  0  0  0  0  0  0  0
   15.3627   13.3605   11.4676 O   0  0  0  0  0  0  0  0  0  0  0  0
   14.4781   11.3259   11.4841 N   0  0  0  0  0  0  0  0  0  0  0  0
   14.6873    9.9543   11.4376 C   0  0  0  0  0  0  0  0  0  0  0  0
   15.0436    9.2148   12.5287 C   0  0  0  0  0  0  0  0  0  0  0  0
   15.3193    7.8766   12.3275 C   0  0  0  0  0  0  0  0  0  0  0  0
   15.6490    6.9836   13.4088 C   0  0  0  0  0  0  0  0  0  0  0  0
   16.2855    5.9756   13.1343 O   0  0  0  0  0  0  0  0  0  0  0  0
   15.0547    7.2545   14.6127 N   0  0  0  0  0  0  0  0  0  0  0  0
   14.3601    6.1480   15.2127 C   0  0  0  0  0  0  0  0  0  0  0  0
   12.9603    6.2010   14.6741 C   0  0  0  0  0  0  0  0  0  0  0  0
   12.4463    5.5984   13.5414 C   0  0  0  0  0  0  0  0  0  0  0  0
   11.0796    5.9160   13.3739 C   0  0  0  0  0  0  0  0  0  0  0  0
   10.0743    5.2739   11.9392 Br  0  0  0  0  0  0  0  0  0  0  0  0
   10.5743    6.7344   14.3484 C   0  0  0  0  0  0  0  0  0  0  0  0
   11.7839    7.1672   15.4684 S   0  0  0  0  0  0  0  0  0  0  0  0
   15.1996    7.2512   11.0949 C   0  0  0  0  0  0  0  0  0  0  0  0
   14.7670    7.9831   10.0405 C   0  0  0  0  0  0  0  0  0  0  0  0
   14.4820    9.3311   10.2176 C   0  0  0  0  0  0  0  0  0  0  0  0
   13.9863   10.1271    9.1576 N   0  0  0  0  0  0  0  0  0  0  0  0
   15.1895   10.4320    8.4263 C   0  0  0  0  0  0  0  0  0  0  0  0
   12.9079    9.3775    8.5363 C   0  0  0  0  0  0  0  0  0  0  0  0
   17.5513   10.6465   10.9477 C   0  0  0  0  0  0  0  0  0  0  0  0
   18.8823   11.3559   11.0096 C   0  0  0  0  0  0  0  0  0  0  0  0
   18.1937   12.4839   11.7889 C   0  0  0  0  0  0  0  0  0  0  0  0
  1  2  1  0
  2  3  1  0
  3  4  1  0
  4  5  1  0
  5  6  2  0
  5  7  1  0
  7  8  1  0
  8  9  2  0
  9 10  1  0
 10 11  1  0
 11 12  2  0
 11 13  1  0
 13 14  1  0
 14 15  1  0
 15 16  2  0
 16 17  1  0
 17 18  1  0
 17 19  2  0
 19 20  1  0
 10 21  2  0
 21 22  1  0
 22 23  2  0
 23 24  1  0
 24 25  1  0
 24 26  1  0
  4 27  1  0
 27 28  1  0
 28 29  1  0
 29  4  1  0
 23  8  1  0
 20 15  1  0
M  END
>  <ref_pdb>  (44) 
c0270a

>  <inchikey>  (44) 
UQMVBSSLPHGEIC-UHFFFAOYSA-N

>  <original ID>  (44) 
UQMVBSSLPHGEIC-UHFFFAOYSA-N

>  <generation_date>  (44) 
None

>  <alias>  (44) 
None

>  <tags>  (44) 
[]

>  <ref_mols>  (44) 
c0692a,c0892a

>  <ref_url>  (44) 
None

>  <submitter_name>  (44) 
None

>  <exports>  (44) 
nan

>  <original SMILES>  (44) 
CCOC1(C(=O)Nc2cc(C(=O)NCc3cc(Br)cs3)ccc2N(C)C)CCC1

>  <method>  (44) 
None

>  <submitter_email>  (44) 
None

>  <HIPPO ID>  (44) 
17450

$$$$
FFNOBQXYFAIIIU-UHFFFAOYSA-N
     RDKit          3D

 21 22  0  0  0  0  0  0  0  0999 V2000
   22.5880   10.8523   12.2313 C   0  0  0  0  0  0  0  0  0  0  0  0
   21.8714   11.0410   11.0147 O   0  0  0  0  0  0  0  0  0  0  0  0
   20.7262   11.7385   11.2169 C   0  0  0  0  0  0  0  0  0  0  0  0
   19.5560   11.1875   10.6785 C   0  0  0  0  0  0  0  0  0  0  0  0
   18.2964   11.6911   10.9940 C   0  0  0  0  0  0  0  0  0  0  0  0
   17.1335   11.1525   10.4027 N   0  0  0  0  0  0  0  0  0  0  0  0
   16.2575   10.1253   10.8365 C   0  0  0  0  0  0  0  0  0  0  0  0
   15.7462    9.2872    9.8192 C   0  0  0  0  0  0  0  0  0  0  0  0
   14.8829    8.2325   10.0948 C   0  0  0  0  0  0  0  0  0  0  0  0
   14.5341    7.9797   11.4029 C   0  0  0  0  0  0  0  0  0  0  0  0
   13.6877    6.9378   11.6427 O   0  0  0  0  0  0  0  0  0  0  0  0
   14.9697    8.8155   12.4268 C   0  0  0  0  0  0  0  0  0  0  0  0
   15.7814    9.9286   12.1451 C   0  0  0  0  0  0  0  0  0  0  0  0
   16.0290   11.0544   13.5155 S   0  0  0  0  0  0  0  0  0  0  0  0
   14.8433   12.3402   13.0193 C   0  0  0  0  0  0  0  0  0  0  0  0
   18.2479   12.8290   11.7827 C   0  0  0  0  0  0  0  0  0  0  0  0
   19.4245   13.4651   12.2159 C   0  0  0  0  0  0  0  0  0  0  0  0
   19.3191   14.8152   12.7883 C   0  0  0  0  0  0  0  0  0  0  0  0
   19.7614   15.6374   11.7286 O   0  0  0  0  0  0  0  0  0  0  0  0
   20.6759   12.9273   11.9274 C   0  0  0  0  0  0  0  0  0  0  0  0
   22.4843   14.0399   12.4216 I   0  0  0  0  0  0  0  0  0  0  0  0
  1  2  1  0
  2  3  1  0
  3  4  2  0
  4  5  1  0
  5  6  1  0
  6  7  1  0
  7  8  2  0
  8  9  1  0
  9 10  2  0
 10 11  1  0
 10 12  1  0
 12 13  2  0
 13 14  1  0
 14 15  1  0
  5 16  2  0
 16 17  1  0
 17 18  1  0
 18 19  1  0
 17 20  2  0
 20 21  1  0
 20  3  1  0
 13  7  1  0
M  END
>  <ref_pdb>  (45) 
c0270a

>  <inchikey>  (45) 
FFNOBQXYFAIIIU-UHFFFAOYSA-N

>  <original ID>  (45) 
FFNOBQXYFAIIIU-UHFFFAOYSA-N

>  <generation_date>  (45) 
None

>  <alias>  (45) 
None

>  <tags>  (45) 
[]

>  <ref_mols>  (45) 
c0935a,c1116a

>  <ref_url>  (45) 
None

>  <submitter_name>  (45) 
None

>  <exports>  (45) 
nan

>  <original SMILES>  (45) 
COc1cc(Nc2ccc(O)cc2SC)cc(CO)c1I

>  <method>  (45) 
None

>  <submitter_email>  (45) 
None

>  <HIPPO ID>  (45) 
20267

$$$$
JMZMQZXISAVQJQ-UHFFFAOYSA-N
     RDKit          3D

 21 23  0  0  0  0  0  0  0  0999 V2000
   13.8105    8.7735    8.5578 C   0  0  0  0  0  0  0  0  0  0  0  0
   14.8149    8.0495    9.2492 O   0  0  0  0  0  0  0  0  0  0  0  0
   15.1640    8.7189   10.3844 C   0  0  0  0  0  0  0  0  0  0  0  0
   15.9022    9.8994   10.2840 C   0  0  0  0  0  0  0  0  0  0  0  0
   16.1403   10.6599   11.4186 C   0  0  0  0  0  0  0  0  0  0  0  0
   16.8401   11.8849   11.3787 N   0  0  0  0  0  0  0  0  0  0  0  0
   18.2470   12.0482   11.3759 C   0  0  0  0  0  0  0  0  0  0  0  0
   19.0946   11.1991   10.6433 C   0  0  0  0  0  0  0  0  0  0  0  0
   20.4865   11.3421   10.6833 C   0  0  0  0  0  0  0  0  0  0  0  0
   21.0083   12.3309   11.4805 C   0  0  0  0  0  0  0  0  0  0  0  0
   20.1964   13.2100   12.1746 C   0  0  0  0  0  0  0  0  0  0  0  0
   18.8156   13.1108   12.1039 C   0  0  0  0  0  0  0  0  0  0  0  0
   21.0519   14.1754   12.9001 C   0  0  0  0  0  0  0  0  0  0  0  0
   22.3842   13.4280   12.8127 C   0  0  0  0  0  0  0  0  0  0  0  0
   22.3460   12.5458   11.6681 O   0  0  0  0  0  0  0  0  0  0  0  0
   15.6684   10.1899   12.6494 C   0  0  0  0  0  0  0  0  0  0  0  0
   14.9597    8.9790   12.7767 C   0  0  0  0  0  0  0  0  0  0  0  0
   14.4918    8.5587   14.1418 C   0  0  0  0  0  0  0  0  0  0  0  0
   14.2327    9.6927   14.9658 O   0  0  0  0  0  0  0  0  0  0  0  0
   14.7542    8.2133   11.6220 C   0  0  0  0  0  0  0  0  0  0  0  0
   13.7950    6.3218   11.6624 I   0  0  0  0  0  0  0  0  0  0  0  0
  1  2  1  0
  2  3  1  0
  3  4  2  0
  4  5  1  0
  5  6  1  0
  6  7  1  0
  7  8  2  0
  8  9  1  0
  9 10  2  0
 10 11  1  0
 11 12  2  0
 11 13  1  0
 13 14  1  0
 14 15  1  0
  5 16  2  0
 16 17  1  0
 17 18  1  0
 18 19  1  0
 17 20  2  0
 20 21  1  0
 20  3  1  0
 12  7  1  0
 15 10  1  0
M  END
>  <ref_pdb>  (46) 
c0270a

>  <inchikey>  (46) 
JMZMQZXISAVQJQ-UHFFFAOYSA-N

>  <original ID>  (46) 
JMZMQZXISAVQJQ-UHFFFAOYSA-N

>  <generation_date>  (46) 
None

>  <alias>  (46) 
None

>  <tags>  (46) 
[]

>  <ref_mols>  (46) 
c0935a,c1116a

>  <ref_url>  (46) 
None

>  <submitter_name>  (46) 
None

>  <exports>  (46) 
nan

>  <original SMILES>  (46) 
COc1cc(Nc2ccc3c(c2)CCO3)cc(CO)c1I

>  <method>  (46) 
None

>  <submitter_email>  (46) 
None

>  <HIPPO ID>  (46) 
20328

$$$$
WONKJKGCDNOYCY-UHFFFAOYSA-N
     RDKit          3D

 22 23  0  0  0  0  0  0  0  0999 V2000
   21.2126   10.6842   10.0760 C   0  0  0  0  0  0  0  0  0  0  0  0
   19.8762   11.0405   10.3716 O   0  0  0  0  0  0  0  0  0  0  0  0
   19.7579   12.0320   11.2956 C   0  0  0  0  0  0  0  0  0  0  0  0
   20.8832   12.6443   11.8679 C   0  0  0  0  0  0  0  0  0  0  0  0
   20.7245   13.6863   12.7421 C   0  0  0  0  0  0  0  0  0  0  0  0
   22.2530   14.4651   13.5196 Br  0  0  0  0  0  0  0  0  0  0  0  0
   19.4468   14.1280   13.0216 C   0  0  0  0  0  0  0  0  0  0  0  0
   18.2906   13.4960   12.4778 C   0  0  0  0  0  0  0  0  0  0  0  0
   17.0009   14.1298   12.8742 C   0  0  0  0  0  0  0  0  0  0  0  0
   16.8426   13.9140   14.2701 O   0  0  0  0  0  0  0  0  0  0  0  0
   18.4260   12.4005   11.6135 C   0  0  0  0  0  0  0  0  0  0  0  0
   17.3562   11.7342   10.9133 N   0  0  0  0  0  0  0  0  0  0  0  0
   16.5314   10.5858   11.1426 C   0  0  0  0  0  0  0  0  0  0  0  0
   16.2028    9.8081   10.0038 C   0  0  0  0  0  0  0  0  0  0  0  0
   15.3286    8.7146   10.0170 C   0  0  0  0  0  0  0  0  0  0  0  0
   14.7664    8.3193   11.2068 C   0  0  0  0  0  0  0  0  0  0  0  0
   13.9085    7.2645   11.2624 O   0  0  0  0  0  0  0  0  0  0  0  0
   15.0267    9.0444   12.3558 C   0  0  0  0  0  0  0  0  0  0  0  0
   15.8545   10.1911   12.2928 C   0  0  0  0  0  0  0  0  0  0  0  0
   15.8151   11.0065   13.4640 N   0  0  0  0  0  4  0  0  0  0  0  0
   15.0943   12.0084   13.4234 O   0  0  0  0  0  0  0  0  0  0  0  0
   16.3973   10.5823   14.4662 O   0  0  0  0  0  1  0  0  0  0  0  0
  1  2  1  0
  2  3  1  0
  3  4  2  0
  4  5  1  0
  5  6  1  0
  5  7  2  0
  7  8  1  0
  8  9  1  0
  9 10  1  0
  8 11  2  0
 11 12  1  0
 12 13  1  0
 13 14  2  0
 14 15  1  0
 15 16  2  0
 16 17  1  0
 16 18  1  0
 18 19  2  0
 19 20  1  0
 20 21  2  0
 20 22  1  0
 11  3  1  0
 19 13  1  0
M  CHG  2  20   1  22  -1
M  END
>  <ref_pdb>  (47) 
c0270a

>  <inchikey>  (47) 
WONKJKGCDNOYCY-UHFFFAOYSA-N

>  <original ID>  (47) 
WONKJKGCDNOYCY-UHFFFAOYSA-N

>  <generation_date>  (47) 
None

>  <alias>  (47) 
None

>  <tags>  (47) 
[]

>  <ref_mols>  (47) 
c0935a,c1116a

>  <ref_url>  (47) 
None

>  <submitter_name>  (47) 
None

>  <exports>  (47) 
nan

>  <original SMILES>  (47) 
COc1cc(Br)cc(CO)c1Nc1ccc(O)cc1[N+](=O)[O-]

>  <method>  (47) 
None

>  <submitter_email>  (47) 
None

>  <HIPPO ID>  (47) 
21169

$$$$
GUEYISDIIKIXDE-JTQLQIEISA-N
     RDKit          3D

 19 21  0  0  0  0  0  0  0  0999 V2000
   18.3668   15.3337   13.4587 C   0  0  0  0  0  0  0  0  0  0  0  0
   18.2326   14.0772   12.7546 N   0  0  0  0  0  0  0  0  0  0  0  0
   17.0654   13.3999   12.5870 C   0  0  0  0  0  0  0  0  0  0  0  0
   17.3104   12.2616   11.8324 C   0  0  0  0  0  0  0  0  0  0  0  0
   16.2617   11.2703   11.6197 C   0  0  0  0  0  0  0  0  0  0  0  0
   15.3762   11.1276   12.4598 O   0  0  0  0  0  0  0  0  0  0  0  0
   16.2789   10.5658   10.4356 N   0  0  0  0  0  0  0  0  0  0  0  0
   15.1219    9.7535   10.0971 C   0  0  0  0  0  0  0  0  0  0  0  0
   15.4926    8.2869   10.1651 C   0  0  2  0  0  0  0  0  0  0  0  0
   14.4070    7.2121   10.3834 C   0  0  0  0  0  0  0  0  0  0  0  0
   15.3706    6.5752   11.3885 C   0  0  0  0  0  0  0  0  0  0  0  0
   16.1053    7.8410   11.4349 N   0  0  0  0  0  0  0  0  0  0  0  0
   18.7051   12.2940   11.4920 C   0  0  0  0  0  0  0  0  0  0  0  0
   19.5835   11.4506   10.7735 C   0  0  0  0  0  0  0  0  0  0  0  0
   20.9752   11.6288   10.8822 C   0  0  0  0  0  0  0  0  0  0  0  0
   21.4922   12.6433   11.6803 C   0  0  0  0  0  0  0  0  0  0  0  0
   23.1842   12.7756   11.9662 Cl  0  0  0  0  0  0  0  0  0  0  0  0
   20.6516   13.5589   12.3043 C   0  0  0  0  0  0  0  0  0  0  0  0
   19.2679   13.3657   12.1998 C   0  0  0  0  0  0  0  0  0  0  0  0
  1  2  1  0
  2  3  1  0
  3  4  2  0
  4  5  1  0
  5  6  2  0
  5  7  1  0
  7  8  1  0
  9  8  1  1
  9 10  1  0
 10 11  1  0
 11 12  1  0
  4 13  1  0
 13 14  2  0
 14 15  1  0
 15 16  2  0
 16 17  1  0
 16 18  1  0
 18 19  2  0
 19  2  1  0
 12  9  1  0
 19 13  1  0
M  END
>  <ref_pdb>  (48) 
c0270a

>  <inchikey>  (48) 
GUEYISDIIKIXDE-JTQLQIEISA-N

>  <original ID>  (48) 
GUEYISDIIKIXDE-JTQLQIEISA-N

>  <generation_date>  (48) 
None

>  <alias>  (48) 
None

>  <tags>  (48) 
[]

>  <ref_mols>  (48) 
c0270a,c0894a

>  <ref_url>  (48) 
None

>  <submitter_name>  (48) 
None

>  <exports>  (48) 
nan

>  <original SMILES>  (48) 
Cn1cc(C(=O)NC[C@@H]2CCN2)c2ccc(Cl)cc21

>  <method>  (48) 
None

>  <submitter_email>  (48) 
None

>  <HIPPO ID>  (48) 
28182

$$$$
GUEYISDIIKIXDE-SNVBAGLBSA-N
     RDKit          3D

 19 21  0  0  0  0  0  0  0  0999 V2000
   18.2694   15.4105   13.4569 C   0  0  0  0  0  0  0  0  0  0  0  0
   18.1566   14.1347   12.7840 N   0  0  0  0  0  0  0  0  0  0  0  0
   17.0012   13.4321   12.6345 C   0  0  0  0  0  0  0  0  0  0  0  0
   17.2753   12.2493   11.9623 C   0  0  0  0  0  0  0  0  0  0  0  0
   16.2597   11.1954   11.8785 C   0  0  0  0  0  0  0  0  0  0  0  0
   15.1508   11.3273   12.3893 O   0  0  0  0  0  0  0  0  0  0  0  0
   16.6253   10.0264   11.2678 N   0  0  0  0  0  0  0  0  0  0  0  0
   15.7489    8.8678   11.2386 C   0  0  0  0  0  0  0  0  0  0  0  0
   15.0626    8.7530    9.8881 C   0  0  1  0  0  0  0  0  0  0  0  0
   14.1410    9.8920    9.4128 C   0  0  0  0  0  0  0  0  0  0  0  0
   15.3471   10.3962    8.6738 C   0  0  0  0  0  0  0  0  0  0  0  0
   15.9295    9.0679    8.7384 N   0  0  0  0  0  0  0  0  0  0  0  0
   18.6666   12.3265   11.5730 C   0  0  0  0  0  0  0  0  0  0  0  0
   19.5727   11.5214   10.8365 C   0  0  0  0  0  0  0  0  0  0  0  0
   20.9598   11.7377   10.9356 C   0  0  0  0  0  0  0  0  0  0  0  0
   21.4524   12.7617   11.7325 C   0  0  0  0  0  0  0  0  0  0  0  0
   23.1410   12.9347   12.0109 Cl  0  0  0  0  0  0  0  0  0  0  0  0
   20.5870   13.6584   12.3488 C   0  0  0  0  0  0  0  0  0  0  0  0
   19.2066   13.4291   12.2511 C   0  0  0  0  0  0  0  0  0  0  0  0
  1  2  1  0
  2  3  1  0
  3  4  2  0
  4  5  1  0
  5  6  2  0
  5  7  1  0
  7  8  1  0
  9  8  1  1
  9 10  1  0
 10 11  1  0
 11 12  1  0
  4 13  1  0
 13 14  2  0
 14 15  1  0
 15 16  2  0
 16 17  1  0
 16 18  1  0
 18 19  2  0
 19  2  1  0
 12  9  1  0
 19 13  1  0
M  END
>  <ref_pdb>  (49) 
c0270a

>  <inchikey>  (49) 
GUEYISDIIKIXDE-SNVBAGLBSA-N

>  <original ID>  (49) 
GUEYISDIIKIXDE-SNVBAGLBSA-N

>  <generation_date>  (49) 
None

>  <alias>  (49) 
None

>  <tags>  (49) 
[]

>  <ref_mols>  (49) 
c0270a,c0894a

>  <ref_url>  (49) 
None

>  <submitter_name>  (49) 
None

>  <exports>  (49) 
nan

>  <original SMILES>  (49) 
Cn1cc(C(=O)NC[C@H]2CCN2)c2ccc(Cl)cc21

>  <method>  (49) 
None

>  <submitter_email>  (49) 
None

>  <HIPPO ID>  (49) 
28183

$$$$
XNLNHJGQJVDHLQ-SNVBAGLBSA-N
     RDKit          3D

 19 21  0  0  0  0  0  0  0  0999 V2000
   18.5039   15.5115   13.4845 C   0  0  0  0  0  0  0  0  0  0  0  0
   18.2465   14.2363   12.8531 N   0  0  0  0  0  0  0  0  0  0  0  0
   17.0300   13.6389   12.7770 C   0  0  0  0  0  0  0  0  0  0  0  0
   17.1554   12.4249   12.1133 C   0  0  0  0  0  0  0  0  0  0  0  0
   16.0020   11.5308   12.0519 C   0  0  0  0  0  0  0  0  0  0  0  0
   14.9105   11.8840   12.5003 O   0  0  0  0  0  0  0  0  0  0  0  0
   16.1529   10.2497   11.5250 N   0  0  0  0  0  0  0  0  0  0  0  0
   15.5945    9.1295   12.3656 C   0  0  0  0  0  0  0  0  0  0  0  0
   15.1099    8.4816   11.0810 C   0  0  0  0  0  0  0  0  0  0  0  0
   15.0883    9.8977   10.5158 C   0  0  2  0  0  0  0  0  0  0  0  0
   15.5171   10.1328    9.1045 C   0  0  0  0  0  0  0  0  0  0  0  0
   16.6329    9.3028    8.7776 N   0  0  0  0  0  0  0  0  0  0  0  0
   18.5242   12.3605   11.6689 C   0  0  0  0  0  0  0  0  0  0  0  0
   19.3103   11.4639   10.9062 C   0  0  0  0  0  0  0  0  0  0  0  0
   20.7166   11.5784   10.9050 C   0  0  0  0  0  0  0  0  0  0  0  0
   21.3412   12.5814   11.6371 C   0  0  0  0  0  0  0  0  0  0  0  0
   23.0512   12.6342   11.8164 Cl  0  0  0  0  0  0  0  0  0  0  0  0
   20.5916   13.5555   12.2823 C   0  0  0  0  0  0  0  0  0  0  0  0
   19.1959   13.4321   12.2780 C   0  0  0  0  0  0  0  0  0  0  0  0
  1  2  1  0
  2  3  1  0
  3  4  2  0
  4  5  1  0
  5  6  2  0
  5  7  1  0
  7  8  1  0
  8  9  1  0
  9 10  1  0
 10 11  1  6
 11 12  1  0
  4 13  1  0
 13 14  2  0
 14 15  1  0
 15 16  2  0
 16 17  1  0
 16 18  1  0
 18 19  2  0
 19  2  1  0
 10  7  1  0
 19 13  1  0
M  END
>  <ref_pdb>  (50) 
c0270a

>  <inchikey>  (50) 
XNLNHJGQJVDHLQ-SNVBAGLBSA-N

>  <original ID>  (50) 
XNLNHJGQJVDHLQ-SNVBAGLBSA-N

>  <generation_date>  (50) 
None

>  <alias>  (50) 
None

>  <tags>  (50) 
[]

>  <ref_mols>  (50) 
c0270a,c0894a

>  <ref_url>  (50) 
None

>  <submitter_name>  (50) 
None

>  <exports>  (50) 
nan

>  <original SMILES>  (50) 
Cn1cc(C(=O)N2CC[C@@H]2CN)c2ccc(Cl)cc21

>  <method>  (50) 
None

>  <submitter_email>  (50) 
None

>  <HIPPO ID>  (50) 
28184

$$$$
XHOFNXFGDGKUJA-UHFFFAOYSA-N
     RDKit          3D

 20 22  0  0  0  0  0  0  0  0999 V2000
   18.6087   15.6537   13.5887 C   0  0  0  0  0  0  0  0  0  0  0  0
   18.4395   14.4089   12.8746 N   0  0  0  0  0  0  0  0  0  0  0  0
   17.2484   13.7724   12.7023 C   0  0  0  0  0  0  0  0  0  0  0  0
   17.4740   12.6271   11.9640 C   0  0  0  0  0  0  0  0  0  0  0  0
   16.4532   11.6164   11.7759 C   0  0  0  0  0  0  0  0  0  0  0  0
   15.5644   11.4223   12.5990 O   0  0  0  0  0  0  0  0  0  0  0  0
   16.6244   10.8262   10.6775 N   0  0  0  0  0  0  0  0  0  0  0  0
   16.3622    9.4430   10.8587 C   0  0  0  0  0  0  0  0  0  0  0  0
   15.1746    9.0053   10.1390 C   0  0  0  0  0  0  0  0  0  0  0  0
   14.4431    9.6299    9.1633 C   0  0  0  0  0  0  0  0  0  0  0  0
   13.4391    8.7863    8.6513 C   0  0  0  0  0  0  0  0  0  0  0  0
   13.4737    7.5559    9.2565 C   0  0  0  0  0  0  0  0  0  0  0  0
   14.5963    7.4543   10.5077 S   0  0  0  0  0  0  0  0  0  0  0  0
   18.8764   12.6042   11.6321 C   0  0  0  0  0  0  0  0  0  0  0  0
   19.7382   11.7169   10.9368 C   0  0  0  0  0  0  0  0  0  0  0  0
   21.1306   11.8561   11.0481 C   0  0  0  0  0  0  0  0  0  0  0  0
   21.6673   12.8660   11.8361 C   0  0  0  0  0  0  0  0  0  0  0  0
   23.3601   12.9476   12.1259 Cl  0  0  0  0  0  0  0  0  0  0  0  0
   20.8488   13.8123   12.4471 C   0  0  0  0  0  0  0  0  0  0  0  0
   19.4603   13.6633   12.3338 C   0  0  0  0  0  0  0  0  0  0  0  0
  1  2  1  0
  2  3  1  0
  3  4  2  0
  4  5  1  0
  5  6  2  0
  5  7  1  0
  7  8  1  0
  8  9  1  0
  9 10  2  0
 10 11  1  0
 11 12  2  0
 12 13  1  0
  4 14  1  0
 14 15  2  0
 15 16  1  0
 16 17  2  0
 17 18  1  0
 17 19  1  0
 19 20  2  0
 20  2  1  0
 13  9  1  0
 20 14  1  0
M  END
>  <ref_pdb>  (51) 
c0270a

>  <inchikey>  (51) 
XHOFNXFGDGKUJA-UHFFFAOYSA-N

>  <original ID>  (51) 
XHOFNXFGDGKUJA-UHFFFAOYSA-N

>  <generation_date>  (51) 
None

>  <alias>  (51) 
None

>  <tags>  (51) 
[]

>  <ref_mols>  (51) 
c0270a,c0894a

>  <ref_url>  (51) 
None

>  <submitter_name>  (51) 
None

>  <exports>  (51) 
nan

>  <original SMILES>  (51) 
Cn1cc(C(=O)NCc2cccs2)c2ccc(Cl)cc21

>  <method>  (51) 
None

>  <submitter_email>  (51) 
None

>  <HIPPO ID>  (51) 
28815

$$$$
QTNNNFRSKLYFKU-UHFFFAOYSA-N
     RDKit          3D

 21 23  0  0  0  0  0  0  0  0999 V2000
   16.5630    6.4852   14.1370 C   0  0  0  0  0  0  0  0  0  0  0  0
   16.0513    6.7886   12.8199 N   0  0  0  0  0  0  0  0  0  0  0  0
   15.4584    5.9179   11.9583 C   0  0  0  0  0  0  0  0  0  0  0  0
   15.0686    6.6741   10.8771 C   0  0  0  0  0  0  0  0  0  0  0  0
   15.5766    7.9776   11.1168 C   0  0  0  0  0  0  0  0  0  0  0  0
   15.5025    9.1621   10.1828 C   0  0  0  0  0  0  0  0  0  0  0  0
   16.4745   10.1914   10.4957 N   0  0  0  0  0  0  0  0  0  0  0  0
   16.1992   11.1259   11.4634 C   0  0  0  0  0  0  0  0  0  0  0  0
   15.1209   11.1484   12.0532 O   0  0  0  0  0  0  0  0  0  0  0  0
   17.2305   12.1313   11.7493 C   0  0  0  0  0  0  0  0  0  0  0  0
   16.9289   13.2599   12.5013 C   0  0  0  0  0  0  0  0  0  0  0  0
   18.0679   13.9716   12.7195 N   0  0  0  0  0  0  0  0  0  0  0  0
   18.1361   15.2364   13.4192 C   0  0  0  0  0  0  0  0  0  0  0  0
   19.1459   13.3008   12.1976 C   0  0  0  0  0  0  0  0  0  0  0  0
   20.5191   13.5507   12.3429 C   0  0  0  0  0  0  0  0  0  0  0  0
   21.4182   12.6818   11.7338 C   0  0  0  0  0  0  0  0  0  0  0  0
   23.0963   12.8848   12.0579 Cl  0  0  0  0  0  0  0  0  0  0  0  0
   20.9667   11.6571   10.9129 C   0  0  0  0  0  0  0  0  0  0  0  0
   19.5868   11.4222   10.7662 C   0  0  0  0  0  0  0  0  0  0  0  0
   18.6442   12.2127   11.4674 C   0  0  0  0  0  0  0  0  0  0  0  0
   16.1459    8.0316   12.3302 N   0  0  0  0  0  0  0  0  0  0  0  0
  1  2  1  0
  2  3  1  0
  3  4  2  0
  4  5  1  0
  5  6  1  0
  6  7  1  0
  7  8  1  0
  8  9  2  0
  8 10  1  0
 10 11  2  0
 11 12  1  0
 12 13  1  0
 12 14  1  0
 14 15  2  0
 15 16  1  0
 16 17  1  0
 16 18  2  0
 18 19  1  0
 19 20  2  0
  5 21  2  0
 21  2  1  0
 20 10  1  0
 20 14  1  0
M  END
>  <ref_pdb>  (52) 
c0270a

>  <inchikey>  (52) 
QTNNNFRSKLYFKU-UHFFFAOYSA-N

>  <original ID>  (52) 
QTNNNFRSKLYFKU-UHFFFAOYSA-N

>  <generation_date>  (52) 
None

>  <alias>  (52) 
None

>  <tags>  (52) 
[]

>  <ref_mols>  (52) 
c0270a,c0894a

>  <ref_url>  (52) 
None

>  <submitter_name>  (52) 
None

>  <exports>  (52) 
nan

>  <original SMILES>  (52) 
Cn1ccc(CNC(=O)c2cn(C)c3cc(Cl)ccc23)n1

>  <method>  (52) 
None

>  <submitter_email>  (52) 
None

>  <HIPPO ID>  (52) 
29322

$$$$
ZHZYDIHQAFIRHG-MRVPVSSYSA-N
     RDKit          3D

 19 20  0  0  0  0  0  0  0  0999 V2000
    6.4946    4.1635   14.4338 C   0  0  0  0  0  0  0  0  0  0  0  0
    7.9434    4.1540   14.8344 C   0  0  0  0  0  0  0  0  0  0  0  0
    8.5125    3.2102   15.3795 O   0  0  0  0  0  0  0  0  0  0  0  0
    8.7608    5.3301   14.5079 C   0  0  0  0  0  0  0  0  0  0  0  0
    9.5886    5.1274   13.4791 C   0  0  0  0  0  0  0  0  0  0  0  0
   10.5408    6.1838   13.1654 C   0  0  0  0  0  0  0  0  0  0  0  0
   11.2567    6.1362   12.1793 O   0  0  0  0  0  0  0  0  0  0  0  0
   10.5867    7.2159   14.0419 N   0  0  0  0  0  0  0  0  0  0  0  0
    9.6469    7.4948   14.9891 C   0  0  0  0  0  0  0  0  0  0  0  0
    9.6482    8.5822   15.5508 O   0  0  0  0  0  0  0  0  0  0  0  0
    8.7507    6.4846   15.2677 N   0  0  0  0  0  0  0  0  0  0  0  0
    7.8525    6.6662   16.4095 C   0  0  0  0  0  0  0  0  0  0  0  0
    6.4665    7.1812   16.0071 C   0  0  1  0  0  0  0  0  0  0  0  0
    5.4140    6.6147   16.9352 C   0  0  0  0  0  0  0  0  0  0  0  0
    5.4688    7.3556   18.2551 C   0  0  0  0  0  0  0  0  0  0  0  0
    5.7293    9.0225   17.7905 S   0  0  0  0  0  6  0  0  0  0  0  0
    4.4516    9.7052   17.7760 O   0  0  0  0  0  0  0  0  0  0  0  0
    6.8461    9.5274   18.5470 O   0  0  0  0  0  0  0  0  0  0  0  0
    6.2591    8.6774   16.1338 C   0  0  0  0  0  0  0  0  0  0  0  0
  1  2  1  0
  2  3  2  0
  2  4  1  0
  4  5  2  0
  5  6  1  0
  6  7  2  0
  6  8  1  0
  8  9  1  0
  9 10  2  0
  9 11  1  0
 11 12  1  0
 13 12  1  1
 13 14  1  0
 14 15  1  0
 15 16  1  0
 16 17  2  0
 16 18  2  0
 16 19  1  0
 11  4  1  0
 19 13  1  0
M  END
>  <ref_pdb>  (53) 
c0300a

>  <inchikey>  (53) 
ZHZYDIHQAFIRHG-MRVPVSSYSA-N

>  <original ID>  (53) 
ZHZYDIHQAFIRHG-MRVPVSSYSA-N

>  <generation_date>  (53) 
None

>  <alias>  (53) 
None

>  <tags>  (53) 
[]

>  <ref_mols>  (53) 
c0314a,c1182a

>  <ref_url>  (53) 
None

>  <submitter_name>  (53) 
None

>  <exports>  (53) 
nan

>  <original SMILES>  (53) 
CC(=O)c1cc(=O)[nH]c(=O)n1C[C@H]1CCS(=O)(=O)C1

>  <method>  (53) 
None

>  <submitter_email>  (53) 
None

>  <HIPPO ID>  (53) 
31832

$$$$
ZHZYDIHQAFIRHG-MRVPVSSYSA-N
     RDKit          3D

 19 20  0  0  0  0  0  0  0  0999 V2000
    6.4627    4.2237   14.5742 C   0  0  0  0  0  0  0  0  0  0  0  0
    7.9457    4.1259   14.7525 C   0  0  0  0  0  0  0  0  0  0  0  0
    8.5299    3.1480   15.2120 O   0  0  0  0  0  0  0  0  0  0  0  0
    8.7568    5.2912   14.3869 C   0  0  0  0  0  0  0  0  0  0  0  0
    9.5340    5.1067   13.3172 C   0  0  0  0  0  0  0  0  0  0  0  0
   10.4958    6.1538   12.9994 C   0  0  0  0  0  0  0  0  0  0  0  0
   11.2522    6.0710   12.0467 O   0  0  0  0  0  0  0  0  0  0  0  0
   10.5203    7.2124   13.8440 N   0  0  0  0  0  0  0  0  0  0  0  0
    9.6804    7.4356   14.8910 C   0  0  0  0  0  0  0  0  0  0  0  0
    9.7862    8.4643   15.5482 O   0  0  0  0  0  0  0  0  0  0  0  0
    8.7906    6.4198   15.1791 N   0  0  0  0  0  0  0  0  0  0  0  0
    8.1513    6.4517   16.4837 C   0  0  0  0  0  0  0  0  0  0  0  0
    6.7498    7.0387   16.5699 C   0  0  1  0  0  0  0  0  0  0  0  0
    6.2928    6.8718   18.0158 C   0  0  0  0  0  0  0  0  0  0  0  0
    5.0039    7.6196   18.1490 C   0  0  0  0  0  0  0  0  0  0  0  0
    5.4064    9.1589   17.4278 S   0  0  0  0  0  6  0  0  0  0  0  0
    6.0725    9.9369   18.4440 O   0  0  0  0  0  0  0  0  0  0  0  0
    4.2167    9.6481   16.7807 O   0  0  0  0  0  0  0  0  0  0  0  0
    6.6458    8.5307   16.2986 C   0  0  0  0  0  0  0  0  0  0  0  0
  1  2  1  0
  2  3  2  0
  2  4  1  0
  4  5  2  0
  5  6  1  0
  6  7  2  0
  6  8  1  0
  8  9  1  0
  9 10  2  0
  9 11  1  0
 11 12  1  0
 13 12  1  1
 13 14  1  0
 14 15  1  0
 15 16  1  0
 16 17  2  0
 16 18  2  0
 16 19  1  0
 11  4  1  0
 19 13  1  0
M  END
>  <ref_pdb>  (54) 
c0300a

>  <inchikey>  (54) 
ZHZYDIHQAFIRHG-MRVPVSSYSA-N

>  <original ID>  (54) 
ZHZYDIHQAFIRHG-MRVPVSSYSA-N

>  <generation_date>  (54) 
None

>  <alias>  (54) 
None

>  <tags>  (54) 
[]

>  <ref_mols>  (54) 
c0314a,c1182a

>  <ref_url>  (54) 
None

>  <submitter_name>  (54) 
None

>  <exports>  (54) 
nan

>  <original SMILES>  (54) 
CC(=O)c1cc(=O)[nH]c(=O)n1C[C@H]1CCS(=O)(=O)C1

>  <method>  (54) 
None

>  <submitter_email>  (54) 
None

>  <HIPPO ID>  (54) 
31833

$$$$
NYOQAQVVFGPVQX-MRVPVSSYSA-N
     RDKit          3D

 19 20  0  0  0  0  0  0  0  0999 V2000
   12.4160    5.0392   12.0509 C   0  0  0  0  0  0  0  0  0  0  0  0
   11.1946    5.8781   12.1922 C   0  0  0  0  0  0  0  0  0  0  0  0
   10.8359    6.6839   11.3455 O   0  0  0  0  0  0  0  0  0  0  0  0
   10.4292    5.8786   13.4427 C   0  0  0  0  0  0  0  0  0  0  0  0
    9.6224    4.8706   13.7483 C   0  0  0  0  0  0  0  0  0  0  0  0
    8.7427    5.0411   14.9165 C   0  0  0  0  0  0  0  0  0  0  0  0
    8.1212    4.0565   15.3081 O   0  0  0  0  0  0  0  0  0  0  0  0
    8.7153    6.2984   15.5013 N   0  0  0  0  0  0  0  0  0  0  0  0
    7.7612    6.5790   16.5545 C   0  0  0  0  0  0  0  0  0  0  0  0
    6.4416    7.1298   15.9992 C   0  0  1  0  0  0  0  0  0  0  0  0
    5.3030    6.6158   16.8438 C   0  0  0  0  0  0  0  0  0  0  0  0
    5.3480    7.3353   18.1839 C   0  0  0  0  0  0  0  0  0  0  0  0
    5.7092    8.9985   17.7546 S   0  0  0  0  0  6  0  0  0  0  0  0
    6.8290    9.4498   18.5430 O   0  0  0  0  0  0  0  0  0  0  0  0
    4.4652    9.7403   17.7161 O   0  0  0  0  0  0  0  0  0  0  0  0
    6.2657    8.6351   16.1082 C   0  0  0  0  0  0  0  0  0  0  0  0
    9.5409    7.3328   15.1182 C   0  0  0  0  0  0  0  0  0  0  0  0
    9.5397    8.4538   15.6117 O   0  0  0  0  0  0  0  0  0  0  0  0
   10.4210    7.0469   14.1320 N   0  0  0  0  0  0  0  0  0  0  0  0
  1  2  1  0
  2  3  2  0
  2  4  1  0
  4  5  2  0
  5  6  1  0
  6  7  2  0
  6  8  1  0
  8  9  1  0
 10  9  1  1
 10 11  1  0
 11 12  1  0
 12 13  1  0
 13 14  2  0
 13 15  2  0
 13 16  1  0
  8 17  1  0
 17 18  2  0
 17 19  1  0
 19  4  1  0
 16 10  1  0
M  END
>  <ref_pdb>  (55) 
c0300a

>  <inchikey>  (55) 
NYOQAQVVFGPVQX-MRVPVSSYSA-N

>  <original ID>  (55) 
NYOQAQVVFGPVQX-MRVPVSSYSA-N

>  <generation_date>  (55) 
None

>  <alias>  (55) 
None

>  <tags>  (55) 
[]

>  <ref_mols>  (55) 
c0314a,c1182a

>  <ref_url>  (55) 
None

>  <submitter_name>  (55) 
None

>  <exports>  (55) 
nan

>  <original SMILES>  (55) 
CC(=O)c1cc(=O)n(C[C@H]2CCS(=O)(=O)C2)c(=O)[nH]1

>  <method>  (55) 
None

>  <submitter_email>  (55) 
None

>  <HIPPO ID>  (55) 
31886

$$$$
NYOQAQVVFGPVQX-MRVPVSSYSA-N
     RDKit          3D

 19 20  0  0  0  0  0  0  0  0999 V2000
   12.0505    6.1101   11.5474 C   0  0  0  0  0  0  0  0  0  0  0  0
   11.6316    5.3098   12.7260 C   0  0  0  0  0  0  0  0  0  0  0  0
   12.2710    4.3480   13.1387 O   0  0  0  0  0  0  0  0  0  0  0  0
   10.4544    5.7418   13.5014 C   0  0  0  0  0  0  0  0  0  0  0  0
    9.5321    4.8220   13.7622 C   0  0  0  0  0  0  0  0  0  0  0  0
    8.5191    5.1301   14.7741 C   0  0  0  0  0  0  0  0  0  0  0  0
    7.7287    4.2424   15.0829 O   0  0  0  0  0  0  0  0  0  0  0  0
    8.5960    6.3829   15.3608 N   0  0  0  0  0  0  0  0  0  0  0  0
    7.7031    6.6858   16.4603 C   0  0  0  0  0  0  0  0  0  0  0  0
    6.3470    7.1933   15.9688 C   0  0  1  0  0  0  0  0  0  0  0  0
    5.2504    6.6440   16.8459 C   0  0  0  0  0  0  0  0  0  0  0  0
    5.3335    7.3453   18.1941 C   0  0  0  0  0  0  0  0  0  0  0  0
    5.6658    9.0181   17.7780 S   0  0  0  0  0  6  0  0  0  0  0  0
    4.4183    9.7531   17.7872 O   0  0  0  0  0  0  0  0  0  0  0  0
    6.8121    9.4671   18.5282 O   0  0  0  0  0  0  0  0  0  0  0  0
    6.1627    8.6903   16.1085 C   0  0  0  0  0  0  0  0  0  0  0  0
    9.4883    7.3609   14.9687 C   0  0  0  0  0  0  0  0  0  0  0  0
    9.5286    8.4974   15.4255 O   0  0  0  0  0  0  0  0  0  0  0  0
   10.4117    6.9845   14.0425 N   0  0  0  0  0  0  0  0  0  0  0  0
  1  2  1  0
  2  3  2  0
  2  4  1  0
  4  5  2  0
  5  6  1  0
  6  7  2  0
  6  8  1  0
  8  9  1  0
 10  9  1  1
 10 11  1  0
 11 12  1  0
 12 13  1  0
 13 14  2  0
 13 15  2  0
 13 16  1  0
  8 17  1  0
 17 18  2  0
 17 19  1  0
 19  4  1  0
 16 10  1  0
M  END
>  <ref_pdb>  (56) 
c0300a

>  <inchikey>  (56) 
NYOQAQVVFGPVQX-MRVPVSSYSA-N

>  <original ID>  (56) 
NYOQAQVVFGPVQX-MRVPVSSYSA-N

>  <generation_date>  (56) 
None

>  <alias>  (56) 
None

>  <tags>  (56) 
[]

>  <ref_mols>  (56) 
c0314a,c1182a

>  <ref_url>  (56) 
None

>  <submitter_name>  (56) 
None

>  <exports>  (56) 
nan

>  <original SMILES>  (56) 
CC(=O)c1cc(=O)n(C[C@H]2CCS(=O)(=O)C2)c(=O)[nH]1

>  <method>  (56) 
None

>  <submitter_email>  (56) 
None

>  <HIPPO ID>  (56) 
31887

$$$$
RZRQWDIIJKRBRL-ZCFIWIBFSA-N
     RDKit          3D

 20 21  0  0  0  0  0  0  0  0999 V2000
    7.7361    3.8527   14.7052 O   0  0  0  0  0  0  0  0  0  0  0  0
    8.3493    4.8999   14.5145 C   0  0  0  0  0  0  0  0  0  0  0  0
    9.3447    4.9090   13.4315 C   0  0  0  0  0  0  0  0  0  0  0  0
   10.1878    5.9368   13.3311 C   0  0  0  0  0  0  0  0  0  0  0  0
   11.2970    5.9901   12.3294 C   0  0  0  0  0  0  0  0  0  0  0  0
   11.7180    4.7769   11.9346 F   0  0  0  0  0  0  0  0  0  0  0  0
   12.3717    6.6404   12.8446 F   0  0  0  0  0  0  0  0  0  0  0  0
   10.8905    6.6766   11.2487 F   0  0  0  0  0  0  0  0  0  0  0  0
   10.0700    6.9958   14.1902 N   0  0  0  0  0  0  0  0  0  0  0  0
    9.1660    7.0843   15.1970 C   0  0  0  0  0  0  0  0  0  0  0  0
    9.2610    8.0187   15.9870 O   0  0  0  0  0  0  0  0  0  0  0  0
    8.2671    6.0335   15.3043 N   0  0  0  0  0  0  0  0  0  0  0  0
    7.5819    5.9214   16.5696 C   0  0  0  0  0  0  0  0  0  0  0  0
    6.2792    6.6774   16.8233 C   0  0  1  0  0  0  0  0  0  0  0  0
    6.2222    6.9862   18.3320 C   0  0  0  0  0  0  0  0  0  0  0  0
    5.0810    7.9204   18.5797 C   0  0  0  0  0  0  0  0  0  0  0  0
    5.3558    9.1141   17.3329 S   0  0  0  0  0  6  0  0  0  0  0  0
    6.3956    9.9750   17.8372 O   0  0  0  0  0  0  0  0  0  0  0  0
    4.0789    9.6491   16.9464 O   0  0  0  0  0  0  0  0  0  0  0  0
    6.0195    7.9983   16.1041 C   0  0  0  0  0  0  0  0  0  0  0  0
  1  2  2  0
  2  3  1  0
  3  4  2  0
  4  5  1  0
  5  6  1  0
  5  7  1  0
  5  8  1  0
  4  9  1  0
  9 10  1  0
 10 11  2  0
 10 12  1  0
 12 13  1  0
 14 13  1  6
 14 15  1  0
 15 16  1  0
 16 17  1  0
 17 18  2  0
 17 19  2  0
 17 20  1  0
 12  2  1  0
 20 14  1  0
M  END
>  <ref_pdb>  (57) 
c0300a

>  <inchikey>  (57) 
RZRQWDIIJKRBRL-ZCFIWIBFSA-N

>  <original ID>  (57) 
RZRQWDIIJKRBRL-ZCFIWIBFSA-N

>  <generation_date>  (57) 
None

>  <alias>  (57) 
None

>  <tags>  (57) 
[]

>  <ref_mols>  (57) 
c0314a,c1182a

>  <ref_url>  (57) 
None

>  <submitter_name>  (57) 
None

>  <exports>  (57) 
nan

>  <original SMILES>  (57) 
O=c1cc(C(F)(F)F)[nH]c(=O)n1C[C@H]1CCS(=O)(=O)C1

>  <method>  (57) 
None

>  <submitter_email>  (57) 
None

>  <HIPPO ID>  (57) 
32366

$$$$
RZRQWDIIJKRBRL-ZCFIWIBFSA-N
     RDKit          3D

 20 21  0  0  0  0  0  0  0  0999 V2000
    7.7078    3.8646   14.6825 O   0  0  0  0  0  0  0  0  0  0  0  0
    8.3385    4.9036   14.5048 C   0  0  0  0  0  0  0  0  0  0  0  0
    9.3367    4.9120   13.4246 C   0  0  0  0  0  0  0  0  0  0  0  0
   10.1826    5.9381   13.3278 C   0  0  0  0  0  0  0  0  0  0  0  0
   11.2859    5.9958   12.3202 C   0  0  0  0  0  0  0  0  0  0  0  0
   12.3655    6.6397   12.8327 F   0  0  0  0  0  0  0  0  0  0  0  0
   11.7011    4.7846   11.9134 F   0  0  0  0  0  0  0  0  0  0  0  0
   10.8729    6.6902   11.2471 F   0  0  0  0  0  0  0  0  0  0  0  0
   10.0711    6.9928   14.1930 N   0  0  0  0  0  0  0  0  0  0  0  0
    9.1707    7.0782   15.2031 C   0  0  0  0  0  0  0  0  0  0  0  0
    9.2700    8.0057   16.0008 O   0  0  0  0  0  0  0  0  0  0  0  0
    8.2678    6.0303   15.3052 N   0  0  0  0  0  0  0  0  0  0  0  0
    7.5823    5.9138   16.5692 C   0  0  0  0  0  0  0  0  0  0  0  0
    6.2888    6.6828   16.8281 C   0  0  1  0  0  0  0  0  0  0  0  0
    6.2417    7.0011   18.3343 C   0  0  0  0  0  0  0  0  0  0  0  0
    5.0960    7.9305   18.5810 C   0  0  0  0  0  0  0  0  0  0  0  0
    5.3538    9.1166   17.3235 S   0  0  0  0  0  6  0  0  0  0  0  0
    4.0684    9.6271   16.9313 O   0  0  0  0  0  0  0  0  0  0  0  0
    6.3794    9.9960   17.8233 O   0  0  0  0  0  0  0  0  0  0  0  0
    6.0340    8.0010   16.1035 C   0  0  0  0  0  0  0  0  0  0  0  0
  1  2  2  0
  2  3  1  0
  3  4  2  0
  4  5  1  0
  5  6  1  0
  5  7  1  0
  5  8  1  0
  4  9  1  0
  9 10  1  0
 10 11  2  0
 10 12  1  0
 12 13  1  0
 14 13  1  6
 14 15  1  0
 15 16  1  0
 16 17  1  0
 17 18  2  0
 17 19  2  0
 17 20  1  0
 12  2  1  0
 20 14  1  0
M  END
>  <ref_pdb>  (58) 
c0300a

>  <inchikey>  (58) 
RZRQWDIIJKRBRL-ZCFIWIBFSA-N

>  <original ID>  (58) 
RZRQWDIIJKRBRL-ZCFIWIBFSA-N

>  <generation_date>  (58) 
None

>  <alias>  (58) 
None

>  <tags>  (58) 
[]

>  <ref_mols>  (58) 
c0314a,c1182a

>  <ref_url>  (58) 
None

>  <submitter_name>  (58) 
None

>  <exports>  (58) 
nan

>  <original SMILES>  (58) 
O=c1cc(C(F)(F)F)[nH]c(=O)n1C[C@H]1CCS(=O)(=O)C1

>  <method>  (58) 
None

>  <submitter_email>  (58) 
None

>  <HIPPO ID>  (58) 
32367

$$$$
NUFDODDQUSNCNF-ZCFIWIBFSA-N
     RDKit          3D

 20 21  0  0  0  0  0  0  0  0999 V2000
   11.1306    6.1820   12.1638 O   0  0  0  0  0  0  0  0  0  0  0  0
   10.4895    6.2282   13.1994 C   0  0  0  0  0  0  0  0  0  0  0  0
    9.5450    5.1831   13.5684 C   0  0  0  0  0  0  0  0  0  0  0  0
    8.7603    5.3609   14.6434 C   0  0  0  0  0  0  0  0  0  0  0  0
    7.8924    4.2420   15.0939 C   0  0  0  0  0  0  0  0  0  0  0  0
    8.3711    3.7416   16.2617 F   0  0  0  0  0  0  0  0  0  0  0  0
    7.9228    3.2351   14.2060 F   0  0  0  0  0  0  0  0  0  0  0  0
    6.5973    4.5583   15.2559 F   0  0  0  0  0  0  0  0  0  0  0  0
    8.7955    6.5544   15.3643 N   0  0  0  0  0  0  0  0  0  0  0  0
    7.8771    6.8072   16.4820 C   0  0  0  0  0  0  0  0  0  0  0  0
    6.4771    7.2281   16.0217 C   0  0  1  0  0  0  0  0  0  0  0  0
    5.4204    6.6207   16.9197 C   0  0  0  0  0  0  0  0  0  0  0  0
    5.4299    7.3561   18.2467 C   0  0  0  0  0  0  0  0  0  0  0  0
    5.6874    9.0324   17.8045 S   0  0  0  0  0  6  0  0  0  0  0  0
    6.8142    9.5270   18.5547 O   0  0  0  0  0  0  0  0  0  0  0  0
    4.4145    9.7220   17.8059 O   0  0  0  0  0  0  0  0  0  0  0  0
    6.2061    8.7123   16.1413 C   0  0  0  0  0  0  0  0  0  0  0  0
    9.6737    7.5579   15.0193 C   0  0  0  0  0  0  0  0  0  0  0  0
    9.6531    8.6773   15.5104 O   0  0  0  0  0  0  0  0  0  0  0  0
   10.6152    7.2370   14.0905 N   0  0  0  0  0  0  0  0  0  0  0  0
  1  2  2  0
  2  3  1  0
  3  4  2  0
  4  5  1  0
  5  6  1  0
  5  7  1  0
  5  8  1  0
  4  9  1  0
  9 10  1  0
 11 10  1  1
 11 12  1  0
 12 13  1  0
 13 14  1  0
 14 15  2  0
 14 16  2  0
 14 17  1  0
  9 18  1  0
 18 19  2  0
 18 20  1  0
 20  2  1  0
 17 11  1  0
M  END
>  <ref_pdb>  (59) 
c0300a

>  <inchikey>  (59) 
NUFDODDQUSNCNF-ZCFIWIBFSA-N

>  <original ID>  (59) 
NUFDODDQUSNCNF-ZCFIWIBFSA-N

>  <generation_date>  (59) 
None

>  <alias>  (59) 
None

>  <tags>  (59) 
[]

>  <ref_mols>  (59) 
c0314a,c1182a

>  <ref_url>  (59) 
None

>  <submitter_name>  (59) 
None

>  <exports>  (59) 
nan

>  <original SMILES>  (59) 
O=c1cc(C(F)(F)F)n(C[C@H]2CCS(=O)(=O)C2)c(=O)[nH]1

>  <method>  (59) 
None

>  <submitter_email>  (59) 
None

>  <HIPPO ID>  (59) 
32444

$$$$
DGQOOBMWKUHKDC-SECBINFHSA-N
     RDKit          3D

 20 22  0  0  0  0  0  0  0  0999 V2000
    7.8130    4.3743   14.5725 O   0  0  0  0  0  0  0  0  0  0  0  0
    8.3213    5.4944   14.6313 C   0  0  0  0  0  0  0  0  0  0  0  0
    9.3466    5.8885   13.6566 C   0  0  0  0  0  0  0  0  0  0  0  0
    9.7748    4.9482   12.6333 C   0  0  0  0  0  0  0  0  0  0  0  0
   11.1111    4.3335   13.0248 C   0  0  0  0  0  0  0  0  0  0  0  0
   11.7876    4.9967   11.8258 C   0  0  0  0  0  0  0  0  0  0  0  0
   10.4073    5.4852   11.3609 C   0  0  0  0  0  0  0  0  0  0  0  0
   10.0491    7.0031   13.8630 C   0  0  0  0  0  0  0  0  0  0  0  0
    9.9244    7.7925   14.9456 N   0  0  0  0  0  0  0  0  0  0  0  0
    9.0192    7.4336   15.7846 C   0  0  0  0  0  0  0  0  0  0  0  0
    9.0921    8.2722   17.2741 S   0  0  0  0  0  0  0  0  0  0  0  0
    8.1066    6.4091   15.6340 N   0  0  0  0  0  0  0  0  0  0  0  0
    7.1914    6.0125   16.6770 C   0  0  0  0  0  0  0  0  0  0  0  0
    5.8700    6.7569   16.8589 C   0  0  1  0  0  0  0  0  0  0  0  0
    5.5826    6.9067   18.3675 C   0  0  0  0  0  0  0  0  0  0  0  0
    6.0046    8.2314   18.8924 C   0  0  0  0  0  0  0  0  0  0  0  0
    5.4868    9.2650   17.5896 S   0  0  0  0  0  6  0  0  0  0  0  0
    6.4819   10.2815   17.4828 O   0  0  0  0  0  0  0  0  0  0  0  0
    4.1095    9.6074   17.8289 O   0  0  0  0  0  0  0  0  0  0  0  0
    5.6477    8.1219   16.2342 C   0  0  0  0  0  0  0  0  0  0  0  0
  1  2  2  0
  2  3  1  0
  3  4  1  0
  4  5  1  0
  5  6  1  0
  6  7  1  0
  3  8  2  0
  8  9  1  0
  9 10  2  0
 10 11  1  0
 10 12  1  0
 12 13  1  0
 14 13  1  1
 14 15  1  0
 15 16  1  0
 16 17  1  0
 17 18  2  0
 17 19  2  0
 17 20  1  0
 12  2  1  0
 20 14  1  0
  7  4  1  0
M  END
>  <ref_pdb>  (60) 
c0300a

>  <inchikey>  (60) 
DGQOOBMWKUHKDC-SECBINFHSA-N

>  <original ID>  (60) 
DGQOOBMWKUHKDC-SECBINFHSA-N

>  <generation_date>  (60) 
None

>  <alias>  (60) 
None

>  <tags>  (60) 
[]

>  <ref_mols>  (60) 
c0314a,c1182a

>  <ref_url>  (60) 
None

>  <submitter_name>  (60) 
None

>  <exports>  (60) 
nan

>  <original SMILES>  (60) 
O=c1c(C2CCC2)cnc(S)n1C[C@H]1CCS(=O)(=O)C1

>  <method>  (60) 
None

>  <submitter_email>  (60) 
None

>  <HIPPO ID>  (60) 
32505

$$$$
VFZNMCWZDPJVAO-UHFFFAOYSA-N
     RDKit          3D

 17 18  0  0  0  0  0  0  0  0999 V2000
   13.6795    6.8852   11.2691 O   0  0  0  0  0  0  0  0  0  0  0  0
   14.5125    7.9523   11.1153 C   0  0  0  0  0  0  0  0  0  0  0  0
   14.8300    8.4199    9.8552 C   0  0  0  0  0  0  0  0  0  0  0  0
   15.6621    9.5268    9.7323 C   0  0  0  0  0  0  0  0  0  0  0  0
   16.1626   10.2067   10.8615 C   0  0  0  0  0  0  0  0  0  0  0  0
   16.9211   11.3912   10.6288 N   0  0  0  0  0  0  0  0  0  0  0  0
   18.2573   11.6738   11.0273 C   0  0  0  0  0  0  0  0  0  0  0  0
   19.2970   10.9740   10.4293 C   0  0  0  0  0  0  0  0  0  0  0  0
   20.6178   11.1858   10.6040 N   0  0  0  0  0  0  0  0  0  0  0  0
   20.9569   12.1824   11.4291 C   0  0  0  0  0  0  0  0  0  0  0  0
   20.0141   12.9616   12.0790 C   0  0  0  0  0  0  0  0  0  0  0  0
   20.4246   13.8987   12.9767 O   0  0  0  0  0  0  0  0  0  0  0  0
   18.6483   12.7317   11.8514 C   0  0  0  0  0  0  0  0  0  0  0  0
   17.3685   13.8505   12.7022 Br  0  0  0  0  0  0  0  0  0  0  0  0
   15.7591    9.7557   12.1258 C   0  0  0  0  0  0  0  0  0  0  0  0
   16.1072   10.6227   13.5727 Cl  0  0  0  0  0  0  0  0  0  0  0  0
   14.9723    8.6059   12.2512 C   0  0  0  0  0  0  0  0  0  0  0  0
  1  2  1  0
  2  3  2  0
  3  4  1  0
  4  5  2  0
  5  6  1  0
  6  7  1  0
  7  8  2  0
  8  9  1  0
  9 10  2  0
 10 11  1  0
 11 12  1  0
 11 13  2  0
 13 14  1  0
  5 15  1  0
 15 16  1  0
 15 17  2  0
 17  2  1  0
 13  7  1  0
M  END
>  <ref_pdb>  (61) 
c0270a

>  <inchikey>  (61) 
VFZNMCWZDPJVAO-UHFFFAOYSA-N

>  <original ID>  (61) 
VFZNMCWZDPJVAO-UHFFFAOYSA-N

>  <generation_date>  (61) 
None

>  <alias>  (61) 
None

>  <tags>  (61) 
[]

>  <ref_mols>  (61) 
c0935a,c1132a

>  <ref_url>  (61) 
None

>  <submitter_name>  (61) 
None

>  <exports>  (61) 
nan

>  <original SMILES>  (61) 
Oc1ccc(Nc2cncc(O)c2Br)c(Cl)c1

>  <method>  (61) 
None

>  <submitter_email>  (61) 
None

>  <HIPPO ID>  (61) 
47007

$$$$
OZRGVYLXKNBQFI-UHFFFAOYSA-N
     RDKit          3D

 18 19  0  0  0  0  0  0  0  0999 V2000
   13.8054    8.2070    9.0251 C   0  0  0  0  0  0  0  0  0  0  0  0
   14.7420    8.6187   10.1104 C   0  0  0  0  0  0  0  0  0  0  0  0
   15.7733    9.5143    9.8395 C   0  0  0  0  0  0  0  0  0  0  0  0
   16.5049   10.0996   10.8715 C   0  0  0  0  0  0  0  0  0  0  0  0
   17.6399   10.8432   10.5386 N   0  0  0  0  0  0  0  0  0  0  0  0
   18.3543   11.8815   11.1565 C   0  0  0  0  0  0  0  0  0  0  0  0
   19.7409   11.9820   10.9330 C   0  0  0  0  0  0  0  0  0  0  0  0
   20.3645   11.0292   10.1923 O   0  0  0  0  0  0  0  0  0  0  0  0
   20.4694   13.0226   11.4697 C   0  0  0  0  0  0  0  0  0  0  0  0
   19.9101   13.9717   12.2323 N   0  0  0  0  0  0  0  0  0  0  0  0
   18.5859   13.8406   12.4927 C   0  0  0  0  0  0  0  0  0  0  0  0
   17.7817   12.8255   11.9987 C   0  0  0  0  0  0  0  0  0  0  0  0
   16.4705   12.8129   12.2857 F   0  0  0  0  0  0  0  0  0  0  0  0
   16.0646    9.9043   12.1808 C   0  0  0  0  0  0  0  0  0  0  0  0
   15.0829    8.9482   12.4822 C   0  0  0  0  0  0  0  0  0  0  0  0
   14.7166    8.7256   13.9181 C   0  0  0  0  0  0  0  0  0  0  0  0
   14.5104    8.2356   11.4276 C   0  0  0  0  0  0  0  0  0  0  0  0
   13.6455    7.1950   11.6286 O   0  0  0  0  0  0  0  0  0  0  0  0
  1  2  1  0
  2  3  2  0
  3  4  1  0
  4  5  1  0
  5  6  1  0
  6  7  2  0
  7  8  1  0
  7  9  1  0
  9 10  2  0
 10 11  1  0
 11 12  2  0
 12 13  1  0
  4 14  2  0
 14 15  1  0
 15 16  1  0
 15 17  2  0
 17 18  1  0
 17  2  1  0
 12  6  1  0
M  END
>  <ref_pdb>  (62) 
c0270a

>  <inchikey>  (62) 
OZRGVYLXKNBQFI-UHFFFAOYSA-N

>  <original ID>  (62) 
OZRGVYLXKNBQFI-UHFFFAOYSA-N

>  <generation_date>  (62) 
None

>  <alias>  (62) 
None

>  <tags>  (62) 
[]

>  <ref_mols>  (62) 
c0935a,c1132a

>  <ref_url>  (62) 
None

>  <submitter_name>  (62) 
None

>  <exports>  (62) 
['/opt/xchem-fragalysis-2/maxwin/CHIKV_HIPPO/hippo_prod/CHIKV_prod11_recipes/Recipe_1G8PPKY_poses.sdf']

>  <original SMILES>  (62) 
Cc1cc(Nc2c(O)cncc2F)cc(C)c1O

>  <method>  (62) 
None

>  <submitter_email>  (62) 
None

>  <HIPPO ID>  (62) 
47583

$$$$
QZCZJCYJDSWJBV-UHFFFAOYSA-N
     RDKit          3D

 18 19  0  0  0  0  0  0  0  0999 V2000
   13.1596    6.5049   13.4280 C   0  0  0  0  0  0  0  0  0  0  0  0
   13.5272    6.8832   12.1167 O   0  0  0  0  0  0  0  0  0  0  0  0
   14.4303    7.8954   11.9812 C   0  0  0  0  0  0  0  0  0  0  0  0
   14.7172    8.1584   10.6659 C   0  0  0  0  0  0  0  0  0  0  0  0
   15.5192    9.2475   10.3816 C   0  0  0  0  0  0  0  0  0  0  0  0
   15.2558    9.9924    8.7199 Br  0  0  0  0  0  0  0  0  0  0  0  0
   16.2506    9.9764   11.3244 C   0  0  0  0  0  0  0  0  0  0  0  0
   17.2575   10.8407   10.8625 N   0  0  0  0  0  0  0  0  0  0  0  0
   18.0335   11.8871   11.3811 C   0  0  0  0  0  0  0  0  0  0  0  0
   17.5303   12.8433   12.2460 C   0  0  0  0  0  0  0  0  0  0  0  0
   18.3791   13.8749   12.6257 C   0  0  0  0  0  0  0  0  0  0  0  0
   19.6713   13.9995   12.2406 N   0  0  0  0  0  0  0  0  0  0  0  0
   20.1637   13.0362   11.4543 C   0  0  0  0  0  0  0  0  0  0  0  0
   19.3916   11.9847   11.0145 C   0  0  0  0  0  0  0  0  0  0  0  0
   19.9453   11.0181   10.2390 O   0  0  0  0  0  0  0  0  0  0  0  0
   15.8728    9.7779   12.6404 C   0  0  0  0  0  0  0  0  0  0  0  0
   14.9474    8.7622   12.9528 C   0  0  0  0  0  0  0  0  0  0  0  0
   14.5109    8.6909   14.2158 F   0  0  0  0  0  0  0  0  0  0  0  0
  1  2  1  0
  2  3  1  0
  3  4  2  0
  4  5  1  0
  5  6  1  0
  5  7  2  0
  7  8  1  0
  8  9  1  0
  9 10  2  0
 10 11  1  0
 11 12  2  0
 12 13  1  0
 13 14  2  0
 14 15  1  0
  7 16  1  0
 16 17  2  0
 17 18  1  0
 17  3  1  0
 14  9  1  0
M  END
>  <ref_pdb>  (63) 
c0270a

>  <inchikey>  (63) 
QZCZJCYJDSWJBV-UHFFFAOYSA-N

>  <original ID>  (63) 
QZCZJCYJDSWJBV-UHFFFAOYSA-N

>  <generation_date>  (63) 
None

>  <alias>  (63) 
None

>  <tags>  (63) 
[]

>  <ref_mols>  (63) 
c0935a,c1132a

>  <ref_url>  (63) 
None

>  <submitter_name>  (63) 
None

>  <exports>  (63) 
nan

>  <original SMILES>  (63) 
COc1cc(Br)c(Nc2ccncc2O)cc1F

>  <method>  (63) 
None

>  <submitter_email>  (63) 
None

>  <HIPPO ID>  (63) 
47740

$$$$
OXNYIYHUFOZLHP-UHFFFAOYSA-N
     RDKit          3D

 18 19  0  0  0  0  0  0  0  0999 V2000
   13.7619    6.9554   11.4613 O   0  0  0  0  0  0  0  0  0  0  0  0
   14.5985    8.0361   11.3752 C   0  0  0  0  0  0  0  0  0  0  0  0
   15.0390    8.3865   10.1134 C   0  0  0  0  0  0  0  0  0  0  0  0
   15.8611    9.4988    9.9639 C   0  0  0  0  0  0  0  0  0  0  0  0
   16.2191   10.3024   11.0684 C   0  0  0  0  0  0  0  0  0  0  0  0
   16.9670   11.4981   10.8228 N   0  0  0  0  0  0  0  0  0  0  0  0
   18.3486   11.7374   11.0887 C   0  0  0  0  0  0  0  0  0  0  0  0
   19.2970   10.9568   10.4472 C   0  0  0  0  0  0  0  0  0  0  0  0
   20.6331   11.1358   10.4685 N   0  0  0  0  0  0  0  0  0  0  0  0
   21.0850   12.2136   11.1229 C   0  0  0  0  0  0  0  0  0  0  0  0
   20.2416   13.0992   11.7658 C   0  0  0  0  0  0  0  0  0  0  0  0
   20.8105   14.1912   12.3503 O   0  0  0  0  0  0  0  0  0  0  0  0
   18.8594   12.8530   11.7663 C   0  0  0  0  0  0  0  0  0  0  0  0
   17.7317   14.0696   12.6952 Br  0  0  0  0  0  0  0  0  0  0  0  0
   15.7291    9.9548   12.3409 C   0  0  0  0  0  0  0  0  0  0  0  0
   16.0080   11.1041   13.8307 Br  0  0  0  0  0  0  0  0  0  0  0  0
   14.9428    8.8032   12.4946 C   0  0  0  0  0  0  0  0  0  0  0  0
   14.3011    8.3195   14.0360 Cl  0  0  0  0  0  0  0  0  0  0  0  0
  1  2  1  0
  2  3  2  0
  3  4  1  0
  4  5  2  0
  5  6  1  0
  6  7  1  0
  7  8  2  0
  8  9  1  0
  9 10  2  0
 10 11  1  0
 11 12  1  0
 11 13  2  0
 13 14  1  0
  5 15  1  0
 15 16  1  0
 15 17  2  0
 17 18  1  0
 17  2  1  0
 13  7  1  0
M  END
>  <ref_pdb>  (64) 
c0270a

>  <inchikey>  (64) 
OXNYIYHUFOZLHP-UHFFFAOYSA-N

>  <original ID>  (64) 
OXNYIYHUFOZLHP-UHFFFAOYSA-N

>  <generation_date>  (64) 
None

>  <alias>  (64) 
None

>  <tags>  (64) 
[]

>  <ref_mols>  (64) 
c0935a,c1132a

>  <ref_url>  (64) 
None

>  <submitter_name>  (64) 
None

>  <exports>  (64) 
nan

>  <original SMILES>  (64) 
Oc1ccc(Nc2cncc(O)c2Br)c(Br)c1Cl

>  <method>  (64) 
None

>  <submitter_email>  (64) 
None

>  <HIPPO ID>  (64) 
47972

$$$$
CYSOGTMCLDJTAX-UHFFFAOYSA-N
     RDKit          3D

 18 19  0  0  0  0  0  0  0  0999 V2000
   13.7895    8.2308    9.0267 C   0  0  0  0  0  0  0  0  0  0  0  0
   14.7079    8.6453   10.1293 C   0  0  0  0  0  0  0  0  0  0  0  0
   15.6069    9.6802    9.8745 C   0  0  0  0  0  0  0  0  0  0  0  0
   16.3197   10.3129   10.9018 C   0  0  0  0  0  0  0  0  0  0  0  0
   17.1376   11.4109   10.5547 N   0  0  0  0  0  0  0  0  0  0  0  0
   18.4473   11.7184   10.9939 C   0  0  0  0  0  0  0  0  0  0  0  0
   19.5171   11.0429   10.4186 C   0  0  0  0  0  0  0  0  0  0  0  0
   20.8243   11.2727   10.6460 N   0  0  0  0  0  0  0  0  0  0  0  0
   21.1141   12.2677   11.4922 C   0  0  0  0  0  0  0  0  0  0  0  0
   20.1378   13.0164   12.1315 C   0  0  0  0  0  0  0  0  0  0  0  0
   20.5079   13.9700   13.0317 O   0  0  0  0  0  0  0  0  0  0  0  0
   18.7848   12.7475   11.8733 C   0  0  0  0  0  0  0  0  0  0  0  0
   17.4337   13.7535   12.7530 Br  0  0  0  0  0  0  0  0  0  0  0  0
   16.0422    9.9593   12.2156 C   0  0  0  0  0  0  0  0  0  0  0  0
   15.1713    8.8950   12.4991 C   0  0  0  0  0  0  0  0  0  0  0  0
   14.8007    8.6132   13.9254 C   0  0  0  0  0  0  0  0  0  0  0  0
   14.5583    8.2080   11.4427 C   0  0  0  0  0  0  0  0  0  0  0  0
   13.7251    7.1681   11.7538 O   0  0  0  0  0  0  0  0  0  0  0  0
  1  2  1  0
  2  3  2  0
  3  4  1  0
  4  5  1  0
  5  6  1  0
  6  7  2  0
  7  8  1  0
  8  9  2  0
  9 10  1  0
 10 11  1  0
 10 12  2  0
 12 13  1  0
  4 14  2  0
 14 15  1  0
 15 16  1  0
 15 17  2  0
 17 18  1  0
 17  2  1  0
 12  6  1  0
M  END
>  <ref_pdb>  (65) 
c0270a

>  <inchikey>  (65) 
CYSOGTMCLDJTAX-UHFFFAOYSA-N

>  <original ID>  (65) 
CYSOGTMCLDJTAX-UHFFFAOYSA-N

>  <generation_date>  (65) 
None

>  <alias>  (65) 
None

>  <tags>  (65) 
[]

>  <ref_mols>  (65) 
c0935a,c1132a

>  <ref_url>  (65) 
None

>  <submitter_name>  (65) 
None

>  <exports>  (65) 
['/opt/xchem-fragalysis-2/maxwin/CHIKV_HIPPO/hippo_prod/CHIKV_prod11_recipes/Recipe_1G8PPKY_poses.sdf']

>  <original SMILES>  (65) 
Cc1cc(Nc2cncc(O)c2Br)cc(C)c1O

>  <method>  (65) 
None

>  <submitter_email>  (65) 
None

>  <HIPPO ID>  (65) 
47974

$$$$
QLRAGDSSDRKFAN-UHFFFAOYSA-N
     RDKit          3D

 19 21  0  0  0  0  0  0  0  0999 V2000
   13.7550    7.1946   11.5688 O   0  0  0  0  0  0  0  0  0  0  0  0
   14.6156    8.2195   11.3048 C   0  0  0  0  0  0  0  0  0  0  0  0
   14.9466    8.5348   10.0033 C   0  0  0  0  0  0  0  0  0  0  0  0
   15.8878    9.5337    9.7832 C   0  0  0  0  0  0  0  0  0  0  0  0
   16.5165   10.2253   10.8413 C   0  0  0  0  0  0  0  0  0  0  0  0
   17.5558   11.1032   10.4835 N   0  0  0  0  0  0  0  0  0  0  0  0
   18.5374   11.8976   11.1303 C   0  0  0  0  0  0  0  0  0  0  0  0
   19.8781   11.6664   10.7635 C   0  0  0  0  0  0  0  0  0  0  0  0
   20.1512   10.6819    9.8772 O   0  0  0  0  0  0  0  0  0  0  0  0
   20.9107   12.4344   11.2380 C   0  0  0  0  0  0  0  0  0  0  0  0
   20.7025   13.4608   12.0516 N   0  0  0  0  0  0  0  0  0  0  0  0
   19.4440   13.7073   12.4332 C   0  0  0  0  0  0  0  0  0  0  0  0
   19.2825   14.7956   13.2617 C   0  0  0  0  0  0  0  0  0  0  0  0
   18.0260   15.1764   13.7197 C   0  0  0  0  0  0  0  0  0  0  0  0
   16.9019   14.4572   13.3333 C   0  0  0  0  0  0  0  0  0  0  0  0
   17.0326   13.3600   12.4830 C   0  0  0  0  0  0  0  0  0  0  0  0
   18.3026   12.9542   12.0260 C   0  0  0  0  0  0  0  0  0  0  0  0
   16.0629    9.9846   12.1323 C   0  0  0  0  0  0  0  0  0  0  0  0
   15.1337    8.9594   12.3669 C   0  0  0  0  0  0  0  0  0  0  0  0
  1  2  1  0
  2  3  2  0
  3  4  1  0
  4  5  2  0
  5  6  1  0
  6  7  1  0
  7  8  2  0
  8  9  1  0
  8 10  1  0
 10 11  2  0
 11 12  1  0
 12 13  2  0
 13 14  1  0
 14 15  2  0
 15 16  1  0
 16 17  2  0
  5 18  1  0
 18 19  2  0
 19  2  1  0
 17  7  1  0
 17 12  1  0
M  END
>  <ref_pdb>  (66) 
c0270a

>  <inchikey>  (66) 
QLRAGDSSDRKFAN-UHFFFAOYSA-N

>  <original ID>  (66) 
QLRAGDSSDRKFAN-UHFFFAOYSA-N

>  <generation_date>  (66) 
None

>  <alias>  (66) 
None

>  <tags>  (66) 
[]

>  <ref_mols>  (66) 
c0935a,c1132a

>  <ref_url>  (66) 
None

>  <submitter_name>  (66) 
None

>  <exports>  (66) 
nan

>  <original SMILES>  (66) 
Oc1ccc(Nc2c(O)cnc3ccccc23)cc1

>  <method>  (66) 
None

>  <submitter_email>  (66) 
None

>  <HIPPO ID>  (66) 
48198

$$$$
KYZXOLDYLRMNMH-UHFFFAOYSA-N
     RDKit          3D

 19 20  0  0  0  0  0  0  0  0999 V2000
   22.1314   13.4727   12.6598 C   0  0  0  0  0  0  0  0  0  0  0  0
   21.3111   13.8179   11.5527 O   0  0  0  0  0  0  0  0  0  0  0  0
   20.2192   13.0120   11.5087 C   0  0  0  0  0  0  0  0  0  0  0  0
   20.2710   11.8208   10.8200 C   0  0  0  0  0  0  0  0  0  0  0  0
   19.1747   11.0836   10.5729 N   0  0  0  0  0  0  0  0  0  0  0  0
   17.9791   11.5346   11.0032 C   0  0  0  0  0  0  0  0  0  0  0  0
   16.8605   10.9543   10.3914 N   0  0  0  0  0  0  0  0  0  0  0  0
   16.0313    9.8905   10.8336 C   0  0  0  0  0  0  0  0  0  0  0  0
   15.4893    9.1076    9.7872 C   0  0  0  0  0  0  0  0  0  0  0  0
   14.6442    8.0359   10.0310 C   0  0  0  0  0  0  0  0  0  0  0  0
   14.3361    7.7192   11.3325 C   0  0  0  0  0  0  0  0  0  0  0  0
   13.4746    6.6839   11.5445 O   0  0  0  0  0  0  0  0  0  0  0  0
   14.8031    8.5008   12.3864 C   0  0  0  0  0  0  0  0  0  0  0  0
   15.6091    9.6294   12.1550 C   0  0  0  0  0  0  0  0  0  0  0  0
   15.9421   10.7427   13.5280 S   0  0  0  0  0  0  0  0  0  0  0  0
   15.9466    9.6465   14.9677 C   0  0  0  0  0  0  0  0  0  0  0  0
   17.8495   12.6866   11.7606 C   0  0  0  0  0  0  0  0  0  0  0  0
   18.9931   13.4303   12.0137 C   0  0  0  0  0  0  0  0  0  0  0  0
   18.8249   15.0557   12.9713 Br  0  0  0  0  0  0  0  0  0  0  0  0
  1  2  1  0
  2  3  1  0
  3  4  2  0
  4  5  1  0
  5  6  2  0
  6  7  1  0
  7  8  1  0
  8  9  2  0
  9 10  1  0
 10 11  2  0
 11 12  1  0
 11 13  1  0
 13 14  2  0
 14 15  1  0
 15 16  1  0
  6 17  1  0
 17 18  2  0
 18 19  1  0
 18  3  1  0
 14  8  1  0
M  END
>  <ref_pdb>  (67) 
c0270a

>  <inchikey>  (67) 
KYZXOLDYLRMNMH-UHFFFAOYSA-N

>  <original ID>  (67) 
KYZXOLDYLRMNMH-UHFFFAOYSA-N

>  <generation_date>  (67) 
None

>  <alias>  (67) 
None

>  <tags>  (67) 
[]

>  <ref_mols>  (67) 
c0935a,c1132a

>  <ref_url>  (67) 
None

>  <submitter_name>  (67) 
None

>  <exports>  (67) 
nan

>  <original SMILES>  (67) 
COc1cnc(Nc2ccc(O)cc2SC)cc1Br

>  <method>  (67) 
None

>  <submitter_email>  (67) 
None

>  <HIPPO ID>  (67) 
48314

$$$$
YYOFAEBDKRSZHP-UHFFFAOYSA-N
     RDKit          3D

 19 20  0  0  0  0  0  0  0  0999 V2000
   13.3092    6.2161   10.2015 C   0  0  0  0  0  0  0  0  0  0  0  0
   13.5968    7.0401   11.3205 O   0  0  0  0  0  0  0  0  0  0  0  0
   14.4841    8.0538   11.1007 C   0  0  0  0  0  0  0  0  0  0  0  0
   14.9567    8.4646    9.8725 C   0  0  0  0  0  0  0  0  0  0  0  0
   15.9017    9.4801    9.8072 C   0  0  0  0  0  0  0  0  0  0  0  0
   16.3726   10.1501   10.9516 C   0  0  0  0  0  0  0  0  0  0  0  0
   17.4295   11.0442   10.7216 N   0  0  0  0  0  0  0  0  0  0  0  0
   18.0008   12.1544   11.3663 C   0  0  0  0  0  0  0  0  0  0  0  0
   17.2434   13.0515   12.1120 C   0  0  0  0  0  0  0  0  0  0  0  0
   17.8955   14.1014   12.7257 C   0  0  0  0  0  0  0  0  0  0  0  0
   17.0299   15.2315   13.6753 Cl  0  0  0  0  0  0  0  0  0  0  0  0
   19.2171   14.3348   12.6417 N   0  0  0  0  0  0  0  0  0  0  0  0
   19.9427   13.4547   11.9169 C   0  0  0  0  0  0  0  0  0  0  0  0
   19.3943   12.3601   11.2640 C   0  0  0  0  0  0  0  0  0  0  0  0
   20.0846   11.4390   10.5208 O   0  0  0  0  0  0  0  0  0  0  0  0
   21.5075   11.4961   10.5893 C   0  0  0  0  0  0  0  0  0  0  0  0
   15.7751    9.8380   12.1809 C   0  0  0  0  0  0  0  0  0  0  0  0
   16.0190   10.5409   13.4796 C   0  0  0  0  0  0  0  0  0  0  0  0
   14.8737    8.7576   12.2374 C   0  0  0  0  0  0  0  0  0  0  0  0
  1  2  1  0
  2  3  1  0
  3  4  2  0
  4  5  1  0
  5  6  2  0
  6  7  1  0
  7  8  1  0
  8  9  2  0
  9 10  1  0
 10 11  1  0
 10 12  2  0
 12 13  1  0
 13 14  2  0
 14 15  1  0
 15 16  1  0
  6 17  1  0
 17 18  1  0
 17 19  2  0
 19  3  1  0
 14  8  1  0
M  END
>  <ref_pdb>  (68) 
c0270a

>  <inchikey>  (68) 
YYOFAEBDKRSZHP-UHFFFAOYSA-N

>  <original ID>  (68) 
YYOFAEBDKRSZHP-UHFFFAOYSA-N

>  <generation_date>  (68) 
None

>  <alias>  (68) 
None

>  <tags>  (68) 
[]

>  <ref_mols>  (68) 
c0935a,c1132a

>  <ref_url>  (68) 
None

>  <submitter_name>  (68) 
None

>  <exports>  (68) 
nan

>  <original SMILES>  (68) 
COc1ccc(Nc2cc(Cl)ncc2OC)c(C)c1

>  <method>  (68) 
None

>  <submitter_email>  (68) 
None

>  <HIPPO ID>  (68) 
48629

$$$$
LSJQJKJFVTWTSS-UHFFFAOYSA-N
     RDKit          3D

 19 20  0  0  0  0  0  0  0  0999 V2000
   21.3225   11.3847   10.5849 C   0  0  0  0  0  0  0  0  0  0  0  0
   19.8949   11.3937   10.5458 O   0  0  0  0  0  0  0  0  0  0  0  0
   19.2635   12.3330   11.3271 C   0  0  0  0  0  0  0  0  0  0  0  0
   19.8960   13.4090   11.9382 C   0  0  0  0  0  0  0  0  0  0  0  0
   19.2493   14.3275   12.6827 N   0  0  0  0  0  0  0  0  0  0  0  0
   17.9206   14.1543   12.8378 C   0  0  0  0  0  0  0  0  0  0  0  0
   17.1888   13.1110   12.2787 C   0  0  0  0  0  0  0  0  0  0  0  0
   15.3166   13.2018   12.5114 Br  0  0  0  0  0  0  0  0  0  0  0  0
   17.8594   12.1656   11.4949 C   0  0  0  0  0  0  0  0  0  0  0  0
   17.2696   11.0719   10.8201 N   0  0  0  0  0  0  0  0  0  0  0  0
   16.2348   10.1299   10.9849 C   0  0  0  0  0  0  0  0  0  0  0  0
   15.7290    9.6198    9.7693 C   0  0  0  0  0  0  0  0  0  0  0  0
   14.8114    8.5823    9.7133 C   0  0  0  0  0  0  0  0  0  0  0  0
   14.4046    7.9869   10.8889 C   0  0  0  0  0  0  0  0  0  0  0  0
   13.5546    6.9170   10.8215 O   0  0  0  0  0  0  0  0  0  0  0  0
   14.8178    8.5050   12.1230 C   0  0  0  0  0  0  0  0  0  0  0  0
   14.2241    7.7405   13.5751 Cl  0  0  0  0  0  0  0  0  0  0  0  0
   15.6891    9.6158   12.1771 C   0  0  0  0  0  0  0  0  0  0  0  0
   16.1440   10.2779   13.9042 Br  0  0  0  0  0  0  0  0  0  0  0  0
  1  2  1  0
  2  3  1  0
  3  4  2  0
  4  5  1  0
  5  6  2  0
  6  7  1  0
  7  8  1  0
  7  9  2  0
  9 10  1  0
 10 11  1  0
 11 12  2  0
 12 13  1  0
 13 14  2  0
 14 15  1  0
 14 16  1  0
 16 17  1  0
 16 18  2  0
 18 19  1  0
  9  3  1  0
 18 11  1  0
M  END
>  <ref_pdb>  (69) 
c0270a

>  <inchikey>  (69) 
LSJQJKJFVTWTSS-UHFFFAOYSA-N

>  <original ID>  (69) 
LSJQJKJFVTWTSS-UHFFFAOYSA-N

>  <generation_date>  (69) 
None

>  <alias>  (69) 
None

>  <tags>  (69) 
[]

>  <ref_mols>  (69) 
c0935a,c1132a

>  <ref_url>  (69) 
None

>  <submitter_name>  (69) 
None

>  <exports>  (69) 
nan

>  <original SMILES>  (69) 
COc1cncc(Br)c1Nc1ccc(O)c(Cl)c1Br

>  <method>  (69) 
None

>  <submitter_email>  (69) 
None

>  <HIPPO ID>  (69) 
48738

$$$$
FMTYIUNMSJVFBZ-UHFFFAOYSA-N
     RDKit          3D

 19 20  0  0  0  0  0  0  0  0999 V2000
   13.2741    5.9561   12.1185 C   0  0  0  0  0  0  0  0  0  0  0  0
   14.0600    6.5020   11.0690 O   0  0  0  0  0  0  0  0  0  0  0  0
   14.6212    7.7252   11.2955 C   0  0  0  0  0  0  0  0  0  0  0  0
   14.9569    8.4411   10.1503 C   0  0  0  0  0  0  0  0  0  0  0  0
   15.5026    9.7187   10.2496 C   0  0  0  0  0  0  0  0  0  0  0  0
   15.6937   10.3145   11.5015 C   0  0  0  0  0  0  0  0  0  0  0  0
   16.2782   11.5972   11.5834 N   0  0  0  0  0  0  0  0  0  0  0  0
   17.6627   11.8685   11.4450 C   0  0  0  0  0  0  0  0  0  0  0  0
   18.5177   11.0703   10.6957 C   0  0  0  0  0  0  0  0  0  0  0  0
   19.8422   11.2921   10.5370 N   0  0  0  0  0  0  0  0  0  0  0  0
   20.3491   12.4164   11.0748 C   0  0  0  0  0  0  0  0  0  0  0  0
   19.5874   13.3408   11.7717 C   0  0  0  0  0  0  0  0  0  0  0  0
   20.0547   14.5237   12.2642 O   0  0  0  0  0  0  0  0  0  0  0  0
   21.2814   14.9807   11.7093 C   0  0  0  0  0  0  0  0  0  0  0  0
   18.2366   13.0309   11.9843 C   0  0  0  0  0  0  0  0  0  0  0  0
   17.1509   14.1883   13.0536 Br  0  0  0  0  0  0  0  0  0  0  0  0
   15.3812    9.5866   12.6668 C   0  0  0  0  0  0  0  0  0  0  0  0
   15.5379   10.1866   14.0366 C   0  0  0  0  0  0  0  0  0  0  0  0
   14.8602    8.2856   12.5500 C   0  0  0  0  0  0  0  0  0  0  0  0
  1  2  1  0
  2  3  1  0
  3  4  2  0
  4  5  1  0
  5  6  2  0
  6  7  1  0
  7  8  1  0
  8  9  2  0
  9 10  1  0
 10 11  2  0
 11 12  1  0
 12 13  1  0
 13 14  1  0
 12 15  2  0
 15 16  1  0
  6 17  1  0
 17 18  1  0
 17 19  2  0
 19  3  1  0
 15  8  1  0
M  END
>  <ref_pdb>  (70) 
c0270a

>  <inchikey>  (70) 
FMTYIUNMSJVFBZ-UHFFFAOYSA-N

>  <original ID>  (70) 
FMTYIUNMSJVFBZ-UHFFFAOYSA-N

>  <generation_date>  (70) 
None

>  <alias>  (70) 
None

>  <tags>  (70) 
[]

>  <ref_mols>  (70) 
c0935a,c1132a

>  <ref_url>  (70) 
None

>  <submitter_name>  (70) 
None

>  <exports>  (70) 
nan

>  <original SMILES>  (70) 
COc1ccc(Nc2cncc(OC)c2Br)c(C)c1

>  <method>  (70) 
None

>  <submitter_email>  (70) 
None

>  <HIPPO ID>  (70) 
48767

$$$$
NFKTUCNENKSLDW-UHFFFAOYSA-N
     RDKit          3D

 19 20  0  0  0  0  0  0  0  0999 V2000
   13.2601    6.2271   12.6778 C   0  0  0  0  0  0  0  0  0  0  0  0
   13.5325    6.9172   11.4765 O   0  0  0  0  0  0  0  0  0  0  0  0
   14.4467    7.9294   11.4458 C   0  0  0  0  0  0  0  0  0  0  0  0
   14.8172    8.2064   10.1332 C   0  0  0  0  0  0  0  0  0  0  0  0
   15.6665    9.2592    9.8623 C   0  0  0  0  0  0  0  0  0  0  0  0
   15.9952    9.5033    8.5922 F   0  0  0  0  0  0  0  0  0  0  0  0
   16.1864   10.0762   10.8708 C   0  0  0  0  0  0  0  0  0  0  0  0
   16.9339   11.2189   10.5046 N   0  0  0  0  0  0  0  0  0  0  0  0
   18.2243   11.6042   10.9433 C   0  0  0  0  0  0  0  0  0  0  0  0
   19.3370   10.9848   10.3911 C   0  0  0  0  0  0  0  0  0  0  0  0
   20.6241   11.3528   10.5492 N   0  0  0  0  0  0  0  0  0  0  0  0
   20.8366   12.4876   11.2264 C   0  0  0  0  0  0  0  0  0  0  0  0
   19.8057   13.2110   11.7968 C   0  0  0  0  0  0  0  0  0  0  0  0
   20.1038   14.4076   12.3676 O   0  0  0  0  0  0  0  0  0  0  0  0
   18.4945   12.7292   11.7167 C   0  0  0  0  0  0  0  0  0  0  0  0
   17.1218   13.6488   12.6503 Br  0  0  0  0  0  0  0  0  0  0  0  0
   15.8146    9.8148   12.1830 C   0  0  0  0  0  0  0  0  0  0  0  0
   14.9390    8.7534   12.4753 C   0  0  0  0  0  0  0  0  0  0  0  0
   14.4328    8.6656   14.1267 Cl  0  0  0  0  0  0  0  0  0  0  0  0
  1  2  1  0
  2  3  1  0
  3  4  2  0
  4  5  1  0
  5  6  1  0
  5  7  2  0
  7  8  1  0
  8  9  1  0
  9 10  2  0
 10 11  1  0
 11 12  2  0
 12 13  1  0
 13 14  1  0
 13 15  2  0
 15 16  1  0
  7 17  1  0
 17 18  2  0
 18 19  1  0
 18  3  1  0
 15  9  1  0
M  END
>  <ref_pdb>  (71) 
c0270a

>  <inchikey>  (71) 
NFKTUCNENKSLDW-UHFFFAOYSA-N

>  <original ID>  (71) 
NFKTUCNENKSLDW-UHFFFAOYSA-N

>  <generation_date>  (71) 
None

>  <alias>  (71) 
None

>  <tags>  (71) 
[]

>  <ref_mols>  (71) 
c0935a,c1132a

>  <ref_url>  (71) 
None

>  <submitter_name>  (71) 
None

>  <exports>  (71) 
nan

>  <original SMILES>  (71) 
COc1cc(F)c(Nc2cncc(O)c2Br)cc1Cl

>  <method>  (71) 
None

>  <submitter_email>  (71) 
None

>  <HIPPO ID>  (71) 
49044

$$$$
DOIDUMRWMOTCFK-UHFFFAOYSA-N
     RDKit          3D

 19 20  0  0  0  0  0  0  0  0999 V2000
   13.0967    6.2683   10.6150 C   0  0  0  0  0  0  0  0  0  0  0  0
   13.5923    7.0689   11.6816 O   0  0  0  0  0  0  0  0  0  0  0  0
   14.4920    8.0485   11.3543 C   0  0  0  0  0  0  0  0  0  0  0  0
   14.9000    8.3089   10.0573 C   0  0  0  0  0  0  0  0  0  0  0  0
   15.8586    9.2781    9.8259 C   0  0  0  0  0  0  0  0  0  0  0  0
   16.2713    9.4313    8.5669 F   0  0  0  0  0  0  0  0  0  0  0  0
   16.4501   10.0251   10.8520 C   0  0  0  0  0  0  0  0  0  0  0  0
   17.5139   10.8767   10.5252 N   0  0  0  0  0  0  0  0  0  0  0  0
   18.2368   11.9010   11.1675 C   0  0  0  0  0  0  0  0  0  0  0  0
   19.6343   11.9474   10.9522 C   0  0  0  0  0  0  0  0  0  0  0  0
   20.2216   10.9853   10.1932 O   0  0  0  0  0  0  0  0  0  0  0  0
   20.4123   12.9451   11.4996 C   0  0  0  0  0  0  0  0  0  0  0  0
   19.8948   13.9129   12.2615 N   0  0  0  0  0  0  0  0  0  0  0  0
   18.5606   13.8539   12.4986 C   0  0  0  0  0  0  0  0  0  0  0  0
   17.6945   12.8864   11.9931 C   0  0  0  0  0  0  0  0  0  0  0  0
   16.0020   13.0804   12.2832 Cl  0  0  0  0  0  0  0  0  0  0  0  0
   15.9577    9.8385   12.1387 C   0  0  0  0  0  0  0  0  0  0  0  0
   14.9965    8.8535   12.3905 C   0  0  0  0  0  0  0  0  0  0  0  0
   14.4557    8.6713   14.0246 Cl  0  0  0  0  0  0  0  0  0  0  0  0
  1  2  1  0
  2  3  1  0
  3  4  2  0
  4  5  1  0
  5  6  1  0
  5  7  2  0
  7  8  1  0
  8  9  1  0
  9 10  2  0
 10 11  1  0
 10 12  1  0
 12 13  2  0
 13 14  1  0
 14 15  2  0
 15 16  1  0
  7 17  1  0
 17 18  2  0
 18 19  1  0
 18  3  1  0
 15  9  1  0
M  END
>  <ref_pdb>  (72) 
c0270a

>  <inchikey>  (72) 
DOIDUMRWMOTCFK-UHFFFAOYSA-N

>  <original ID>  (72) 
DOIDUMRWMOTCFK-UHFFFAOYSA-N

>  <generation_date>  (72) 
None

>  <alias>  (72) 
None

>  <tags>  (72) 
[]

>  <ref_mols>  (72) 
c0935a,c1132a

>  <ref_url>  (72) 
None

>  <submitter_name>  (72) 
None

>  <exports>  (72) 
nan

>  <original SMILES>  (72) 
COc1cc(F)c(Nc2c(O)cncc2Cl)cc1Cl

>  <method>  (72) 
None

>  <submitter_email>  (72) 
None

>  <HIPPO ID>  (72) 
49045

$$$$
XBOFVLPMPMRDCG-UHFFFAOYSA-N
     RDKit          3D

 19 20  0  0  0  0  0  0  0  0999 V2000
   13.7372    5.9451   10.9788 C   0  0  0  0  0  0  0  0  0  0  0  0
   13.5280    7.2086   11.6024 O   0  0  0  0  0  0  0  0  0  0  0  0
   14.4733    8.1564   11.3122 C   0  0  0  0  0  0  0  0  0  0  0  0
   14.7138    8.5943   10.0108 C   0  0  0  0  0  0  0  0  0  0  0  0
   13.7435    8.3414    8.9055 C   0  0  0  0  0  0  0  0  0  0  0  0
   15.7762    9.4712    9.7783 C   0  0  0  0  0  0  0  0  0  0  0  0
   16.5056   10.0269   10.8278 C   0  0  0  0  0  0  0  0  0  0  0  0
   17.6430   10.7777   10.5205 N   0  0  0  0  0  0  0  0  0  0  0  0
   18.3299   11.8321   11.1429 C   0  0  0  0  0  0  0  0  0  0  0  0
   19.7166   11.9613   10.9311 C   0  0  0  0  0  0  0  0  0  0  0  0
   20.3669   11.0236   10.1936 O   0  0  0  0  0  0  0  0  0  0  0  0
   20.4194   13.0166   11.4739 C   0  0  0  0  0  0  0  0  0  0  0  0
   19.8348   13.9547   12.2308 N   0  0  0  0  0  0  0  0  0  0  0  0
   18.5112   13.7970   12.4793 C   0  0  0  0  0  0  0  0  0  0  0  0
   17.7315   12.7661   11.9783 C   0  0  0  0  0  0  0  0  0  0  0  0
   16.4171   12.7337   12.2475 F   0  0  0  0  0  0  0  0  0  0  0  0
   16.0452    9.8088   12.1227 C   0  0  0  0  0  0  0  0  0  0  0  0
   15.0652    8.8382   12.3839 C   0  0  0  0  0  0  0  0  0  0  0  0
   14.6262    8.6278   13.8043 C   0  0  0  0  0  0  0  0  0  0  0  0
  1  2  1  0
  2  3  1  0
  3  4  2  0
  4  5  1  0
  4  6  1  0
  6  7  2  0
  7  8  1  0
  8  9  1  0
  9 10  2  0
 10 11  1  0
 10 12  1  0
 12 13  2  0
 13 14  1  0
 14 15  2  0
 15 16  1  0
  7 17  1  0
 17 18  2  0
 18 19  1  0
 18  3  1  0
 15  9  1  0
M  END
>  <ref_pdb>  (73) 
c0270a

>  <inchikey>  (73) 
XBOFVLPMPMRDCG-UHFFFAOYSA-N

>  <original ID>  (73) 
XBOFVLPMPMRDCG-UHFFFAOYSA-N

>  <generation_date>  (73) 
None

>  <alias>  (73) 
None

>  <tags>  (73) 
[]

>  <ref_mols>  (73) 
c0935a,c1132a

>  <ref_url>  (73) 
None

>  <submitter_name>  (73) 
None

>  <exports>  (73) 
nan

>  <original SMILES>  (73) 
COc1c(C)cc(Nc2c(O)cncc2F)cc1C

>  <method>  (73) 
None

>  <submitter_email>  (73) 
None

>  <HIPPO ID>  (73) 
49062

$$$$
XABQHFIUYGMJCM-UHFFFAOYSA-N
     RDKit          3D

 19 20  0  0  0  0  0  0  0  0999 V2000
   21.6513   11.3509   10.5084 C   0  0  0  0  0  0  0  0  0  0  0  0
   20.2274   11.3124   10.5425 O   0  0  0  0  0  0  0  0  0  0  0  0
   19.6170   12.2942   11.2800 C   0  0  0  0  0  0  0  0  0  0  0  0
   20.2782   13.3233   11.9518 C   0  0  0  0  0  0  0  0  0  0  0  0
   19.6548   14.3054   12.6398 N   0  0  0  0  0  0  0  0  0  0  0  0
   18.3123   14.2514   12.6620 C   0  0  0  0  0  0  0  0  0  0  0  0
   17.5733   13.2680   12.0276 C   0  0  0  0  0  0  0  0  0  0  0  0
   16.2541   13.4471   11.9500 F   0  0  0  0  0  0  0  0  0  0  0  0
   18.2086   12.2370   11.3394 C   0  0  0  0  0  0  0  0  0  0  0  0
   17.5355   11.1875   10.6710 N   0  0  0  0  0  0  0  0  0  0  0  0
   16.4658   10.2999   10.9292 C   0  0  0  0  0  0  0  0  0  0  0  0
   16.0074    9.5769    9.8033 C   0  0  0  0  0  0  0  0  0  0  0  0
   15.0594    8.5641    9.8875 C   0  0  0  0  0  0  0  0  0  0  0  0
   14.5832    8.2089   11.1262 C   0  0  0  0  0  0  0  0  0  0  0  0
   13.7192    7.1640   11.2655 O   0  0  0  0  0  0  0  0  0  0  0  0
   14.9442    8.9438   12.2489 C   0  0  0  0  0  0  0  0  0  0  0  0
   15.8277   10.0383   12.1532 C   0  0  0  0  0  0  0  0  0  0  0  0
   16.0930   10.9316   13.6755 S   0  0  0  0  0  0  0  0  0  0  0  0
   14.6257   11.9979   13.6025 C   0  0  0  0  0  0  0  0  0  0  0  0
  1  2  1  0
  2  3  1  0
  3  4  2  0
  4  5  1  0
  5  6  2  0
  6  7  1  0
  7  8  1  0
  7  9  2  0
  9 10  1  0
 10 11  1  0
 11 12  2  0
 12 13  1  0
 13 14  2  0
 14 15  1  0
 14 16  1  0
 16 17  2  0
 17 18  1  0
 18 19  1  0
  9  3  1  0
 17 11  1  0
M  END
>  <ref_pdb>  (74) 
c0270a

>  <inchikey>  (74) 
XABQHFIUYGMJCM-UHFFFAOYSA-N

>  <original ID>  (74) 
XABQHFIUYGMJCM-UHFFFAOYSA-N

>  <generation_date>  (74) 
None

>  <alias>  (74) 
None

>  <tags>  (74) 
[]

>  <ref_mols>  (74) 
c0935a,c1132a

>  <ref_url>  (74) 
None

>  <submitter_name>  (74) 
None

>  <exports>  (74) 
nan

>  <original SMILES>  (74) 
COc1cncc(F)c1Nc1ccc(O)cc1SC

>  <method>  (74) 
None

>  <submitter_email>  (74) 
None

>  <HIPPO ID>  (74) 
49219

$$$$
UOOIIIQXRNWWTD-UHFFFAOYSA-N
     RDKit          3D

 20 21  0  0  0  0  0  0  0  0999 V2000
   21.6702   11.4612   10.4954 C   0  0  0  0  0  0  0  0  0  0  0  0
   20.2468   11.4017   10.4705 O   0  0  0  0  0  0  0  0  0  0  0  0
   19.5850   12.3359   11.2233 C   0  0  0  0  0  0  0  0  0  0  0  0
   20.1767   13.4084   11.8861 C   0  0  0  0  0  0  0  0  0  0  0  0
   19.4933   14.3144   12.6239 N   0  0  0  0  0  0  0  0  0  0  0  0
   18.1635   14.1277   12.7233 C   0  0  0  0  0  0  0  0  0  0  0  0
   17.4883   13.0873   12.1123 C   0  0  0  0  0  0  0  0  0  0  0  0
   16.1556   13.0635   12.1997 F   0  0  0  0  0  0  0  0  0  0  0  0
   18.1893   12.1701   11.3266 C   0  0  0  0  0  0  0  0  0  0  0  0
   17.5714   11.0988   10.6478 N   0  0  0  0  0  0  0  0  0  0  0  0
   16.5019   10.2525   10.9550 C   0  0  0  0  0  0  0  0  0  0  0  0
   15.8227    9.6214    9.9118 C   0  0  0  0  0  0  0  0  0  0  0  0
   14.7842    8.7036   10.1393 C   0  0  0  0  0  0  0  0  0  0  0  0
   13.8833    8.4130    8.9807 C   0  0  0  0  0  0  0  0  0  0  0  0
   14.5292    8.2970   11.4508 C   0  0  0  0  0  0  0  0  0  0  0  0
   13.6511    7.3335   11.8618 O   0  0  0  0  0  0  0  0  0  0  0  0
   13.2688    6.2972   10.9874 C   0  0  0  0  0  0  0  0  0  0  0  0
   15.1107    9.0216   12.5114 C   0  0  0  0  0  0  0  0  0  0  0  0
   14.6758    8.8150   13.9374 C   0  0  0  0  0  0  0  0  0  0  0  0
   16.0490   10.0292   12.2469 C   0  0  0  0  0  0  0  0  0  0  0  0
  1  2  1  0
  2  3  1  0
  3  4  2  0
  4  5  1  0
  5  6  2  0
  6  7  1  0
  7  8  1  0
  7  9  2  0
  9 10  1  0
 10 11  1  0
 11 12  2  0
 12 13  1  0
 13 14  1  0
 13 15  2  0
 15 16  1  0
 16 17  1  0
 15 18  1  0
 18 19  1  0
 18 20  2  0
  9  3  1  0
 20 11  1  0
M  END
>  <ref_pdb>  (75) 
c0270a

>  <inchikey>  (75) 
UOOIIIQXRNWWTD-UHFFFAOYSA-N

>  <original ID>  (75) 
UOOIIIQXRNWWTD-UHFFFAOYSA-N

>  <generation_date>  (75) 
None

>  <alias>  (75) 
None

>  <tags>  (75) 
[]

>  <ref_mols>  (75) 
c0935a,c1132a

>  <ref_url>  (75) 
None

>  <submitter_name>  (75) 
None

>  <exports>  (75) 
nan

>  <original SMILES>  (75) 
COc1cncc(F)c1Nc1cc(C)c(OC)c(C)c1

>  <method>  (75) 
None

>  <submitter_email>  (75) 
None

>  <HIPPO ID>  (75) 
51003

$$$$
IOGSJGARNNJYGV-UHFFFAOYSA-N
     RDKit          3D

 21 23  0  0  0  0  0  0  0  0999 V2000
   15.9599    9.7936   15.1190 C   0  0  0  0  0  0  0  0  0  0  0  0
   16.0641   10.9758   13.7543 S   0  0  0  0  0  0  0  0  0  0  0  0
   15.8133    9.9579   12.3004 C   0  0  0  0  0  0  0  0  0  0  0  0
   14.9862    8.8192   12.4070 C   0  0  0  0  0  0  0  0  0  0  0  0
   14.6103    8.0850   11.2856 C   0  0  0  0  0  0  0  0  0  0  0  0
   13.7604    7.0226   11.3784 O   0  0  0  0  0  0  0  0  0  0  0  0
   15.0299    8.4640   10.0339 C   0  0  0  0  0  0  0  0  0  0  0  0
   15.8764    9.5608    9.9136 C   0  0  0  0  0  0  0  0  0  0  0  0
   16.3189   10.3153   11.0331 C   0  0  0  0  0  0  0  0  0  0  0  0
   17.0936   11.4825   10.7234 N   0  0  0  0  0  0  0  0  0  0  0  0
   18.3242   11.9997   11.2604 C   0  0  0  0  0  0  0  0  0  0  0  0
   19.5290   11.4903   10.7625 C   0  0  0  0  0  0  0  0  0  0  0  0
   19.4447   10.5394    9.8162 O   0  0  0  0  0  0  0  0  0  0  0  0
   20.7512   12.0103   11.1129 C   0  0  0  0  0  0  0  0  0  0  0  0
   20.8589   13.0650   11.9153 N   0  0  0  0  0  0  0  0  0  0  0  0
   19.7250   13.6116   12.3811 C   0  0  0  0  0  0  0  0  0  0  0  0
   19.8677   14.7365   13.1670 C   0  0  0  0  0  0  0  0  0  0  0  0
   18.7627   15.4173   13.6728 C   0  0  0  0  0  0  0  0  0  0  0  0
   17.4805   14.9715   13.3795 C   0  0  0  0  0  0  0  0  0  0  0  0
   17.3048   13.8434   12.5819 C   0  0  0  0  0  0  0  0  0  0  0  0
   18.4157   13.1304   12.0885 C   0  0  0  0  0  0  0  0  0  0  0  0
  1  2  1  0
  2  3  1  0
  3  4  2  0
  4  5  1  0
  5  6  1  0
  5  7  2  0
  7  8  1  0
  8  9  2  0
  9 10  1  0
 10 11  1  0
 11 12  2  0
 12 13  1  0
 12 14  1  0
 14 15  2  0
 15 16  1  0
 16 17  2  0
 17 18  1  0
 18 19  2  0
 19 20  1  0
 20 21  2  0
  9  3  1  0
 21 11  1  0
 21 16  1  0
M  END
>  <ref_pdb>  (76) 
c0270a

>  <inchikey>  (76) 
IOGSJGARNNJYGV-UHFFFAOYSA-N

>  <original ID>  (76) 
IOGSJGARNNJYGV-UHFFFAOYSA-N

>  <generation_date>  (76) 
None

>  <alias>  (76) 
None

>  <tags>  (76) 
[]

>  <ref_mols>  (76) 
c0935a,c1132a

>  <ref_url>  (76) 
None

>  <submitter_name>  (76) 
None

>  <exports>  (76) 
nan

>  <original SMILES>  (76) 
CSc1cc(O)ccc1Nc1c(O)cnc2ccccc12

>  <method>  (76) 
None

>  <submitter_email>  (76) 
None

>  <HIPPO ID>  (76) 
51969

$$$$
YAUPXNVPJZTWJJ-UHFFFAOYSA-N
     RDKit          3D

 23 24  0  0  0  0  0  0  0  0999 V2000
   16.3498    7.2065   15.4259 C   0  0  0  0  0  0  0  0  0  0  0  0
   16.9348    8.5130   15.3954 O   0  0  0  0  0  0  0  0  0  0  0  0
   16.2758    9.6773   15.4793 C   0  0  0  0  0  0  0  0  0  0  0  0
   16.8089   10.7796   15.4655 O   0  0  0  0  0  0  0  0  0  0  0  0
   14.7688    9.6397   15.4735 C   0  0  0  0  0  0  0  0  0  0  0  0
   14.1512    9.1114   16.3866 O   0  0  0  0  0  0  0  0  0  0  0  0
   14.1424   10.2483   14.4131 N   0  0  0  0  0  0  0  0  0  0  0  0
   14.7137   10.3696   13.1384 C   0  0  0  0  0  0  0  0  0  0  0  0
   14.8449   11.6918   12.7001 C   0  0  0  0  0  0  0  0  0  0  0  0
   15.1502   11.9625   11.3771 C   0  0  0  0  0  0  0  0  0  0  0  0
   15.3291   10.9176   10.4875 C   0  0  0  0  0  0  0  0  0  0  0  0
   15.4081   11.2025    9.1558 O   0  0  0  0  0  0  0  0  0  0  0  0
   15.1825    9.6005   10.9101 C   0  0  0  0  0  0  0  0  0  0  0  0
   14.7917    8.6905    9.8892 C   0  0  0  0  0  0  0  0  0  0  0  0
   14.2064    7.9783    9.1939 N   0  0  0  0  0  0  0  0  0  0  0  0
   14.9055    9.2777   12.2634 C   0  0  0  0  0  0  0  0  0  0  0  0
   14.6070    7.9131   12.6121 N   0  0  0  0  0  0  0  0  0  0  0  0
   15.2268    6.8190   12.0496 C   0  0  0  0  0  0  0  0  0  0  0  0
   16.3030    6.8017   11.4673 O   0  0  0  0  0  0  0  0  0  0  0  0
   14.3898    5.5816   12.2957 C   0  0  0  0  0  0  0  0  0  0  0  0
   13.4733    6.0955   13.2602 N   0  0  0  0  0  0  0  0  0  0  0  0
   13.5821    7.4542   13.4034 C   0  0  0  0  0  0  0  0  0  0  0  0
   12.8124    8.0727   14.1251 O   0  0  0  0  0  0  0  0  0  0  0  0
  1  2  1  0
  2  3  1  0
  3  4  2  0
  3  5  1  0
  5  6  2  0
  5  7  1  0
  7  8  1  0
  8  9  2  0
  9 10  1  0
 10 11  2  0
 11 12  1  0
 11 13  1  0
 13 14  1  0
 14 15  3  0
 13 16  2  0
 16 17  1  0
 17 18  1  0
 18 19  2  0
 18 20  1  0
 20 21  1  0
 21 22  1  0
 22 23  2  0
 16  8  1  0
 22 17  1  0
M  END
>  <ref_pdb>  (77) 
c0270a

>  <inchikey>  (77) 
YAUPXNVPJZTWJJ-UHFFFAOYSA-N

>  <original ID>  (77) 
YAUPXNVPJZTWJJ-UHFFFAOYSA-N

>  <generation_date>  (77) 
None

>  <alias>  (77) 
None

>  <tags>  (77) 
[]

>  <ref_mols>  (77) 
c0553a,c0935a

>  <ref_url>  (77) 
None

>  <submitter_name>  (77) 
None

>  <exports>  (77) 
nan

>  <original SMILES>  (77) 
COC(=O)C(=O)Nc1ccc(O)c(C#N)c1N1C(=O)CNC1=O

>  <method>  (77) 
None

>  <submitter_email>  (77) 
None

>  <HIPPO ID>  (77) 
53726

$$$$
WKWFATFSDWZIJI-UHFFFAOYSA-N
     RDKit          3D

 15 16  0  0  0  0  0  0  0  0999 V2000
   14.5230   13.8079   12.2202 C   0  0  0  0  0  0  0  0  0  0  0  0
   14.6535   12.3817   12.5531 C   0  0  0  0  0  0  0  0  0  0  0  0
   14.6968   11.5823   11.4472 N   0  0  0  0  0  0  0  0  0  0  0  0
   14.8212   10.2669   11.6360 C   0  0  0  0  0  0  0  0  0  0  0  0
   14.8028    9.4016   10.5365 C   0  0  0  0  0  0  0  0  0  0  0  0
   14.7921    8.0181   10.7136 C   0  0  0  0  0  0  0  0  0  0  0  0
   14.8562    7.4994   12.0034 C   0  0  0  0  0  0  0  0  0  0  0  0
   14.9346    8.3678   13.1032 C   0  0  0  0  0  0  0  0  0  0  0  0
   14.9131    9.7530   12.9468 C   0  0  0  0  0  0  0  0  0  0  0  0
   14.9682   10.5732   14.0270 N   0  0  0  0  0  0  0  0  0  0  0  0
   14.8750   11.9189   13.8433 C   0  0  0  0  0  0  0  0  0  0  0  0
   15.0570   12.8493   15.0666 C   0  0  0  0  0  0  0  0  0  0  0  0
   13.7952   13.6761   15.3512 C   0  0  0  0  0  0  0  0  0  0  0  0
   16.2244   13.8587   14.9857 C   0  0  0  0  0  0  0  0  0  0  0  0
   15.3880   11.9996   16.3091 C   0  0  0  0  0  0  0  0  0  0  0  0
  1  2  1  0
  2  3  2  0
  3  4  1  0
  4  5  2  0
  5  6  1  0
  6  7  2  0
  7  8  1  0
  8  9  2  0
  9 10  1  0
 10 11  2  0
 11 12  1  0
 12 13  1  0
 12 14  1  0
 12 15  1  0
 11  2  1  0
  9  4  1  0
M  END
>  <ref_pdb>  (78) 
c0300a

>  <inchikey>  (78) 
WKWFATFSDWZIJI-UHFFFAOYSA-N

>  <original ID>  (78) 
WKWFATFSDWZIJI-UHFFFAOYSA-N

>  <generation_date>  (78) 
None

>  <alias>  (78) 
None

>  <tags>  (78) 
[]

>  <ref_mols>  (78) 
c0839a,c1299a

>  <ref_url>  (78) 
None

>  <submitter_name>  (78) 
None

>  <exports>  (78) 
['/opt/xchem-fragalysis-2/maxwin/CHIKV_HIPPO/hippo_prod/CHIKV_prod11_recipes/Recipe_1G8PPKY_poses.sdf']

>  <original SMILES>  (78) 
Cc1nc2ccccc2nc1C(C)(C)C

>  <method>  (78) 
None

>  <submitter_email>  (78) 
None

>  <HIPPO ID>  (78) 
64840

$$$$
OLWIDISBXMDCPO-UHFFFAOYSA-N
     RDKit          3D

 15 16  0  0  0  0  0  0  0  0999 V2000
   13.4845   13.1836   11.3299 C   0  0  0  0  0  0  0  0  0  0  0  0
   14.3060   13.0958   12.6364 C   0  0  0  0  0  0  0  0  0  0  0  0
   15.2457   14.2885   12.6714 C   0  0  0  0  0  0  0  0  0  0  0  0
   13.4947   13.2584   13.9179 C   0  0  0  0  0  0  0  0  0  0  0  0
   14.8491   11.6814   12.6228 C   0  0  0  0  0  0  0  0  0  0  0  0
   15.1503   10.9840   13.7775 C   0  0  0  0  0  0  0  0  0  0  0  0
   15.1750    9.6450   13.8123 N   0  0  0  0  0  0  0  0  0  0  0  0
   14.9672    9.0044   12.6451 C   0  0  0  0  0  0  0  0  0  0  0  0
   14.8723    7.6249   12.6048 C   0  0  0  0  0  0  0  0  0  0  0  0
   14.9770    6.9356   13.7479 F   0  0  0  0  0  0  0  0  0  0  0  0
   14.6593    6.9327   11.4189 C   0  0  0  0  0  0  0  0  0  0  0  0
   14.5652    7.6391   10.2277 C   0  0  0  0  0  0  0  0  0  0  0  0
   14.7116    9.0220   10.2270 C   0  0  0  0  0  0  0  0  0  0  0  0
   14.8700    9.7081   11.4257 C   0  0  0  0  0  0  0  0  0  0  0  0
   14.8629   11.0422   11.4241 N   0  0  0  0  0  0  0  0  0  0  0  0
  1  2  1  0
  2  3  1  0
  2  4  1  0
  2  5  1  0
  5  6  2  0
  6  7  1  0
  7  8  2  0
  8  9  1  0
  9 10  1  0
  9 11  2  0
 11 12  1  0
 12 13  2  0
 13 14  1  0
 14 15  2  0
 15  5  1  0
 14  8  1  0
M  END
>  <ref_pdb>  (79) 
c0300a

>  <inchikey>  (79) 
OLWIDISBXMDCPO-UHFFFAOYSA-N

>  <original ID>  (79) 
OLWIDISBXMDCPO-UHFFFAOYSA-N

>  <generation_date>  (79) 
None

>  <alias>  (79) 
None

>  <tags>  (79) 
[]

>  <ref_mols>  (79) 
c0839a,c1299a

>  <ref_url>  (79) 
None

>  <submitter_name>  (79) 
None

>  <exports>  (79) 
['/opt/xchem-fragalysis-2/maxwin/CHIKV_HIPPO/hippo_prod/CHIKV_prod11_recipes/Recipe_1G8PPKY_poses.sdf']

>  <original SMILES>  (79) 
CC(C)(C)c1cnc2c(F)cccc2n1

>  <method>  (79) 
None

>  <submitter_email>  (79) 
None

>  <HIPPO ID>  (79) 
64857

$$$$
HQKZRJJQHIMFLC-UHFFFAOYSA-N
     RDKit          3D

 15 16  0  0  0  0  0  0  0  0999 V2000
   16.0711   12.7551   15.2696 C   0  0  0  0  0  0  0  0  0  0  0  0
   15.0114   13.0786   14.1871 C   0  0  0  0  0  0  0  0  0  0  0  0
   15.3438   14.4553   13.5384 C   0  0  0  0  0  0  0  0  0  0  0  0
   13.7394   13.3222   14.9562 C   0  0  0  0  0  0  0  0  0  0  0  0
   14.8265   11.8578   13.2430 C   0  0  0  0  0  0  0  0  0  0  0  0
   15.0307   10.6069   13.7435 N   0  0  0  0  0  0  0  0  0  0  0  0
   14.9714    9.5501   12.8809 C   0  0  0  0  0  0  0  0  0  0  0  0
   15.0037    8.2337   13.3282 C   0  0  0  0  0  0  0  0  0  0  0  0
   14.9076    7.1527   12.4369 C   0  0  0  0  0  0  0  0  0  0  0  0
   14.7995    7.3749   11.0670 C   0  0  0  0  0  0  0  0  0  0  0  0
   14.8031    8.6789   10.5914 C   0  0  0  0  0  0  0  0  0  0  0  0
   14.8665    9.7452   11.4810 C   0  0  0  0  0  0  0  0  0  0  0  0
   14.7287   10.9585   10.9848 N   0  0  0  0  0  0  0  0  0  0  0  0
   14.5436   11.9447   11.8849 C   0  0  0  0  0  0  0  0  0  0  0  0
   13.3318   13.1514   11.2151 Br  0  0  0  0  0  0  0  0  0  0  0  0
  1  2  1  0
  2  3  1  0
  2  4  1  0
  2  5  1  0
  5  6  2  0
  6  7  1  0
  7  8  2  0
  8  9  1  0
  9 10  2  0
 10 11  1  0
 11 12  2  0
 12 13  1  0
 13 14  2  0
 14 15  1  0
 14  5  1  0
 12  7  1  0
M  END
>  <ref_pdb>  (80) 
c0300a

>  <inchikey>  (80) 
HQKZRJJQHIMFLC-UHFFFAOYSA-N

>  <original ID>  (80) 
HQKZRJJQHIMFLC-UHFFFAOYSA-N

>  <generation_date>  (80) 
None

>  <alias>  (80) 
None

>  <tags>  (80) 
[]

>  <ref_mols>  (80) 
c0839a,c1299a

>  <ref_url>  (80) 
None

>  <submitter_name>  (80) 
None

>  <exports>  (80) 
nan

>  <original SMILES>  (80) 
CC(C)(C)c1nc2ccccc2nc1Br

>  <method>  (80) 
None

>  <submitter_email>  (80) 
None

>  <HIPPO ID>  (80) 
64867

$$$$
VFRWZXUFTBISFX-CQSZACIVSA-N
     RDKit          3D

 16 18  0  0  0  0  0  0  0  0999 V2000
   16.0995   15.4494   14.6221 C   0  0  0  0  0  0  0  0  0  0  0  0
   15.5653   14.0325   14.7724 C   0  0  0  0  0  0  0  0  0  0  0  0
   16.4286   13.1624   15.6396 C   0  0  0  0  0  0  0  0  0  0  0  0
   14.0735   13.9026   14.9283 C   0  0  0  0  0  0  0  0  0  0  0  0
   14.7132   13.3938   13.6554 C   0  0  1  0  0  0  0  0  0  0  0  0
   14.5738   14.1984   12.4182 C   0  0  0  0  0  0  0  0  0  0  0  0
   14.7406   11.8956   13.3198 C   0  0  0  0  0  0  0  0  0  0  0  0
   14.6528   10.8897   14.2648 C   0  0  0  0  0  0  0  0  0  0  0  0
   14.6983    9.5671   13.9840 N   0  0  0  0  0  0  0  0  0  0  0  0
   14.8005    9.2344   12.6896 C   0  0  0  0  0  0  0  0  0  0  0  0
   14.7571    7.8918   12.3271 C   0  0  0  0  0  0  0  0  0  0  0  0
   14.7533    7.5071   10.9861 C   0  0  0  0  0  0  0  0  0  0  0  0
   14.8288    8.4780    9.9947 C   0  0  0  0  0  0  0  0  0  0  0  0
   14.9125    9.8240   10.3463 C   0  0  0  0  0  0  0  0  0  0  0  0
   14.8796   10.2229   11.6824 C   0  0  0  0  0  0  0  0  0  0  0  0
   14.8887   11.5300   12.0068 N   0  0  0  0  0  0  0  0  0  0  0  0
  1  2  1  0
  2  3  1  0
  2  4  1  0
  4  5  1  0
  5  6  1  6
  5  7  1  0
  7  8  2  0
  8  9  1  0
  9 10  2  0
 10 11  1  0
 11 12  2  0
 12 13  1  0
 13 14  2  0
 14 15  1  0
 15 16  2  0
  5  2  1  0
 16  7  1  0
 15 10  1  0
M  END
>  <ref_pdb>  (81) 
c0300a

>  <inchikey>  (81) 
VFRWZXUFTBISFX-CQSZACIVSA-N

>  <original ID>  (81) 
VFRWZXUFTBISFX-CQSZACIVSA-N

>  <generation_date>  (81) 
None

>  <alias>  (81) 
None

>  <tags>  (81) 
[]

>  <ref_mols>  (81) 
c0839a,c1299a

>  <ref_url>  (81) 
None

>  <submitter_name>  (81) 
None

>  <exports>  (81) 
nan

>  <original SMILES>  (81) 
CC1(C)C[C@]1(C)c1cnc2ccccc2n1

>  <method>  (81) 
None

>  <submitter_email>  (81) 
None

>  <HIPPO ID>  (81) 
64948

$$$$
VFRWZXUFTBISFX-AWEZNQCLSA-N
     RDKit          3D

 16 18  0  0  0  0  0  0  0  0999 V2000
   14.0001   14.9607   15.0546 C   0  0  0  0  0  0  0  0  0  0  0  0
   14.9563   14.1077   14.2586 C   0  0  0  0  0  0  0  0  0  0  0  0
   16.1368   13.6836   15.1112 C   0  0  0  0  0  0  0  0  0  0  0  0
   15.2478   14.6058   12.8950 C   0  0  0  0  0  0  0  0  0  0  0  0
   14.5477   13.2775   12.9384 C   0  0  2  0  0  0  0  0  0  0  0  0
   13.3435   13.3208   12.0634 C   0  0  0  0  0  0  0  0  0  0  0  0
   14.9304   11.8285   12.9262 C   0  0  0  0  0  0  0  0  0  0  0  0
   14.7836   10.9998   14.0267 C   0  0  0  0  0  0  0  0  0  0  0  0
   14.7919    9.6522   13.9523 N   0  0  0  0  0  0  0  0  0  0  0  0
   14.8492    9.1291   12.7170 C   0  0  0  0  0  0  0  0  0  0  0  0
   14.7293    7.7566   12.5491 C   0  0  0  0  0  0  0  0  0  0  0  0
   14.6541    7.1947   11.2754 C   0  0  0  0  0  0  0  0  0  0  0  0
   14.7251    8.0151   10.1555 C   0  0  0  0  0  0  0  0  0  0  0  0
   14.9197    9.3841   10.3027 C   0  0  0  0  0  0  0  0  0  0  0  0
   14.9722    9.9521   11.5702 C   0  0  0  0  0  0  0  0  0  0  0  0
   15.1136   11.2777   11.6932 N   0  0  0  0  0  0  0  0  0  0  0  0
  1  2  1  0
  2  3  1  0
  2  4  1  0
  4  5  1  0
  5  6  1  6
  5  7  1  0
  7  8  2  0
  8  9  1  0
  9 10  2  0
 10 11  1  0
 11 12  2  0
 12 13  1  0
 13 14  2  0
 14 15  1  0
 15 16  2  0
  5  2  1  0
 16  7  1  0
 15 10  1  0
M  END
>  <ref_pdb>  (82) 
c0300a

>  <inchikey>  (82) 
VFRWZXUFTBISFX-AWEZNQCLSA-N

>  <original ID>  (82) 
VFRWZXUFTBISFX-AWEZNQCLSA-N

>  <generation_date>  (82) 
None

>  <alias>  (82) 
None

>  <tags>  (82) 
[]

>  <ref_mols>  (82) 
c0839a,c1299a

>  <ref_url>  (82) 
None

>  <submitter_name>  (82) 
None

>  <exports>  (82) 
nan

>  <original SMILES>  (82) 
CC1(C)C[C@@]1(C)c1cnc2ccccc2n1

>  <method>  (82) 
None

>  <submitter_email>  (82) 
None

>  <HIPPO ID>  (82) 
64949

$$$$
UUEBHTHWLMOVGK-UHFFFAOYSA-N
     RDKit          3D

 16 18  0  0  0  0  0  0  0  0999 V2000
   13.9834   12.6111   10.0862 O   0  0  0  0  0  0  0  0  0  0  0  0
   13.0175   13.2424   10.9144 C   0  0  0  0  0  0  0  0  0  0  0  0
   13.2382   12.9888   12.3865 C   0  0  0  0  0  0  0  0  0  0  0  0
   14.5421   13.2234   13.0592 C   0  0  0  0  0  0  0  0  0  0  0  0
   15.1333   11.8364   13.1415 C   0  0  0  0  0  0  0  0  0  0  0  0
   15.0654   11.0388   14.2682 C   0  0  0  0  0  0  0  0  0  0  0  0
   14.9903    9.6881   14.2018 N   0  0  0  0  0  0  0  0  0  0  0  0
   14.9321    9.1332   12.9726 C   0  0  0  0  0  0  0  0  0  0  0  0
   14.7593    7.7618   12.8237 C   0  0  0  0  0  0  0  0  0  0  0  0
   14.6402    7.1732   11.5598 C   0  0  0  0  0  0  0  0  0  0  0  0
   14.7041    7.9624   10.4177 C   0  0  0  0  0  0  0  0  0  0  0  0
   14.9197    9.3313   10.5454 C   0  0  0  0  0  0  0  0  0  0  0  0
   15.0351    9.9224   11.8076 C   0  0  0  0  0  0  0  0  0  0  0  0
   15.2535   11.2445   11.9106 N   0  0  0  0  0  0  0  0  0  0  0  0
   15.0858   14.6247   13.0083 C   0  0  0  0  0  0  0  0  0  0  0  0
   14.6279   14.0854   14.3166 C   0  0  0  0  0  0  0  0  0  0  0  0
  1  2  1  0
  2  3  1  0
  3  4  1  0
  4  5  1  0
  5  6  2  0
  6  7  1  0
  7  8  2  0
  8  9  1  0
  9 10  2  0
 10 11  1  0
 11 12  2  0
 12 13  1  0
 13 14  2  0
  4 15  1  0
 15 16  1  0
 16  4  1  0
 14  5  1  0
 13  8  1  0
M  END
>  <ref_pdb>  (83) 
c0300a

>  <inchikey>  (83) 
UUEBHTHWLMOVGK-UHFFFAOYSA-N

>  <original ID>  (83) 
UUEBHTHWLMOVGK-UHFFFAOYSA-N

>  <generation_date>  (83) 
None

>  <alias>  (83) 
None

>  <tags>  (83) 
[]

>  <ref_mols>  (83) 
c0839a,c1299a

>  <ref_url>  (83) 
None

>  <submitter_name>  (83) 
None

>  <exports>  (83) 
['/opt/xchem-fragalysis-2/maxwin/CHIKV_HIPPO/hippo_prod/CHIKV_prod11_recipes/Recipe_1G8PPKY_poses.sdf']

>  <original SMILES>  (83) 
OCCC1(c2cnc3ccccc3n2)CC1

>  <method>  (83) 
None

>  <submitter_email>  (83) 
None

>  <HIPPO ID>  (83) 
64953

$$$$
LCHOZVVOEXGRNP-UHFFFAOYSA-N
     RDKit          3D

 16 18  0  0  0  0  0  0  0  0999 V2000
   14.4092   13.0969   15.7612 C   0  0  0  0  0  0  0  0  0  0  0  0
   15.2162   12.9930   14.4645 C   0  0  0  0  0  0  0  0  0  0  0  0
   16.6232   13.3772   14.9444 C   0  0  0  0  0  0  0  0  0  0  0  0
   15.1034   11.5946   13.8211 C   0  0  0  0  0  0  0  0  0  0  0  0
   15.0480   10.4630   14.6071 C   0  0  0  0  0  0  0  0  0  0  0  0
   14.9058    9.2160   14.1090 N   0  0  0  0  0  0  0  0  0  0  0  0
   14.8556    9.0917   12.7746 C   0  0  0  0  0  0  0  0  0  0  0  0
   14.7294    7.8225   12.2169 C   0  0  0  0  0  0  0  0  0  0  0  0
   14.6775    7.6378   10.8342 C   0  0  0  0  0  0  0  0  0  0  0  0
   14.7681    8.7388    9.9925 C   0  0  0  0  0  0  0  0  0  0  0  0
   14.8952   10.0164   10.5433 C   0  0  0  0  0  0  0  0  0  0  0  0
   14.9318   10.2192   11.9277 C   0  0  0  0  0  0  0  0  0  0  0  0
   15.0676   11.4574   12.4552 N   0  0  0  0  0  0  0  0  0  0  0  0
   14.4868   13.9584   13.6208 C   0  0  0  0  0  0  0  0  0  0  0  0
   14.7296   14.1996   12.1941 C   0  0  0  0  0  0  0  0  0  0  0  0
   14.9655   15.3181   13.1792 C   0  0  0  0  0  0  0  0  0  0  0  0
  1  2  1  0
  2  3  1  0
  2  4  1  0
  4  5  2  0
  5  6  1  0
  6  7  2  0
  7  8  1  0
  8  9  2  0
  9 10  1  0
 10 11  2  0
 11 12  1  0
 12 13  2  0
  2 14  1  0
 14 15  1  0
 15 16  1  0
 13  4  1  0
 16 14  1  0
 12  7  1  0
M  END
>  <ref_pdb>  (84) 
c0300a

>  <inchikey>  (84) 
LCHOZVVOEXGRNP-UHFFFAOYSA-N

>  <original ID>  (84) 
LCHOZVVOEXGRNP-UHFFFAOYSA-N

>  <generation_date>  (84) 
None

>  <alias>  (84) 
None

>  <tags>  (84) 
[]

>  <ref_mols>  (84) 
c0839a,c1299a

>  <ref_url>  (84) 
None

>  <submitter_name>  (84) 
None

>  <exports>  (84) 
nan

>  <original SMILES>  (84) 
CC(C)(c1cnc2ccccc2n1)C1CC1

>  <method>  (84) 
None

>  <submitter_email>  (84) 
None

>  <HIPPO ID>  (84) 
64957

$$$$
WFIUQMJYTMBVKN-CQSZACIVSA-N
     RDKit          3D

 17 19  0  0  0  0  0  0  0  0999 V2000
   17.5522   12.3958   15.3713 C   0  0  0  0  0  0  0  0  0  0  0  0
   16.2923   13.0892   15.8254 C   0  0  0  0  0  0  0  0  0  0  0  0
   16.5643   14.4868   16.3401 C   0  0  0  0  0  0  0  0  0  0  0  0
   15.3636   12.1692   16.5751 C   0  0  0  0  0  0  0  0  0  0  0  0
   14.8637   12.7735   15.2880 C   0  0  1  0  0  0  0  0  0  0  0  0
   13.7794   13.8241   15.4835 C   0  0  0  0  0  0  0  0  0  0  0  0
   14.7386   11.9329   13.9911 C   0  0  0  0  0  0  0  0  0  0  0  0
   14.7587   10.5698   14.0431 N   0  0  0  0  0  0  0  0  0  0  0  0
   14.8047    9.8797   12.8753 C   0  0  0  0  0  0  0  0  0  0  0  0
   14.8145    8.4835   12.8868 C   0  0  0  0  0  0  0  0  0  0  0  0
   14.7931    7.7343   11.7001 C   0  0  0  0  0  0  0  0  0  0  0  0
   14.8086    8.3870   10.4712 C   0  0  0  0  0  0  0  0  0  0  0  0
   14.8428    9.7829   10.4399 C   0  0  0  0  0  0  0  0  0  0  0  0
   14.8108   10.5378   11.6182 C   0  0  0  0  0  0  0  0  0  0  0  0
   14.7674   11.8754   11.5509 N   0  0  0  0  0  0  0  0  0  0  0  0
   14.7076   12.5443   12.7343 C   0  0  0  0  0  0  0  0  0  0  0  0
   15.0096   14.4055   12.6774 Br  0  0  0  0  0  0  0  0  0  0  0  0
  1  2  1  0
  2  3  1  0
  2  4  1  0
  4  5  1  0
  5  6  1  1
  5  7  1  0
  7  8  2  0
  8  9  1  0
  9 10  2  0
 10 11  1  0
 11 12  2  0
 12 13  1  0
 13 14  2  0
 14 15  1  0
 15 16  2  0
 16 17  1  0
  5  2  1  0
 16  7  1  0
 14  9  1  0
M  END
>  <ref_pdb>  (85) 
c0300a

>  <inchikey>  (85) 
WFIUQMJYTMBVKN-CQSZACIVSA-N

>  <original ID>  (85) 
WFIUQMJYTMBVKN-CQSZACIVSA-N

>  <generation_date>  (85) 
None

>  <alias>  (85) 
None

>  <tags>  (85) 
[]

>  <ref_mols>  (85) 
c0839a,c1299a

>  <ref_url>  (85) 
None

>  <submitter_name>  (85) 
None

>  <exports>  (85) 
nan

>  <original SMILES>  (85) 
CC1(C)C[C@]1(C)c1nc2ccccc2nc1Br

>  <method>  (85) 
None

>  <submitter_email>  (85) 
None

>  <HIPPO ID>  (85) 
65078

$$$$
WFIUQMJYTMBVKN-AWEZNQCLSA-N
     RDKit          3D

 17 19  0  0  0  0  0  0  0  0999 V2000
   14.0646   12.7644   16.2843 C   0  0  0  0  0  0  0  0  0  0  0  0
   14.6575   13.7756   15.3982 C   0  0  0  0  0  0  0  0  0  0  0  0
   14.2551   15.1792   15.7940 C   0  0  0  0  0  0  0  0  0  0  0  0
   16.0843   13.4543   15.0801 C   0  0  0  0  0  0  0  0  0  0  0  0
   15.0601   13.4951   13.9461 C   0  0  2  0  0  0  0  0  0  0  0  0
   15.2740   14.7146   13.0655 C   0  0  0  0  0  0  0  0  0  0  0  0
   14.7757   12.1149   13.1826 C   0  0  0  0  0  0  0  0  0  0  0  0
   15.0553   10.9067   13.7576 N   0  0  0  0  0  0  0  0  0  0  0  0
   14.9986    9.7756   12.9830 C   0  0  0  0  0  0  0  0  0  0  0  0
   15.0617    8.4948   13.5248 C   0  0  0  0  0  0  0  0  0  0  0  0
   14.9710    7.3442   12.7195 C   0  0  0  0  0  0  0  0  0  0  0  0
   14.8402    7.4550   11.3377 C   0  0  0  0  0  0  0  0  0  0  0  0
   14.8080    8.7193   10.7673 C   0  0  0  0  0  0  0  0  0  0  0  0
   14.8648    9.8508   11.5756 C   0  0  0  0  0  0  0  0  0  0  0  0
   14.6828   11.0124   10.9893 N   0  0  0  0  0  0  0  0  0  0  0  0
   14.4681   12.0546   11.8187 C   0  0  0  0  0  0  0  0  0  0  0  0
   13.1837   13.1462   11.0797 Br  0  0  0  0  0  0  0  0  0  0  0  0
  1  2  1  0
  2  3  1  0
  2  4  1  0
  4  5  1  0
  5  6  1  6
  5  7  1  0
  7  8  2  0
  8  9  1  0
  9 10  2  0
 10 11  1  0
 11 12  2  0
 12 13  1  0
 13 14  2  0
 14 15  1  0
 15 16  2  0
 16 17  1  0
  5  2  1  0
 16  7  1  0
 14  9  1  0
M  END
>  <ref_pdb>  (86) 
c0300a

>  <inchikey>  (86) 
WFIUQMJYTMBVKN-AWEZNQCLSA-N

>  <original ID>  (86) 
WFIUQMJYTMBVKN-AWEZNQCLSA-N

>  <generation_date>  (86) 
None

>  <alias>  (86) 
None

>  <tags>  (86) 
[]

>  <ref_mols>  (86) 
c0839a,c1299a

>  <ref_url>  (86) 
None

>  <submitter_name>  (86) 
None

>  <exports>  (86) 
nan

>  <original SMILES>  (86) 
CC1(C)C[C@@]1(C)c1nc2ccccc2nc1Br

>  <method>  (86) 
None

>  <submitter_email>  (86) 
None

>  <HIPPO ID>  (86) 
65079

$$$$
ISLBTTYBQSBXAF-UHFFFAOYSA-N
     RDKit          3D

 17 19  0  0  0  0  0  0  0  0999 V2000
   14.9963   11.6436   17.5203 O   0  0  0  0  0  0  0  0  0  0  0  0
   15.5152   10.9822   16.3716 C   0  0  0  0  0  0  0  0  0  0  0  0
   16.0974   11.9916   15.3904 C   0  0  0  0  0  0  0  0  0  0  0  0
   15.1001   12.4783   14.3420 C   0  0  0  0  0  0  0  0  0  0  0  0
   14.8309   11.4325   13.2104 C   0  0  0  0  0  0  0  0  0  0  0  0
   14.9967   10.1197   13.5340 N   0  0  0  0  0  0  0  0  0  0  0  0
   14.9158    9.1815   12.5618 C   0  0  0  0  0  0  0  0  0  0  0  0
   14.9118    7.8322   12.8842 C   0  0  0  0  0  0  0  0  0  0  0  0
   14.7742    6.8575   11.8932 C   0  0  0  0  0  0  0  0  0  0  0  0
   14.6629    7.2316   10.5584 C   0  0  0  0  0  0  0  0  0  0  0  0
   14.7275    8.5748   10.2096 C   0  0  0  0  0  0  0  0  0  0  0  0
   14.8245    9.5413   11.1965 C   0  0  0  0  0  0  0  0  0  0  0  0
   14.7139   10.8120   10.8475 N   0  0  0  0  0  0  0  0  0  0  0  0
   14.5693   11.6922   11.8652 C   0  0  0  0  0  0  0  0  0  0  0  0
   13.5153   13.1048   11.3351 Br  0  0  0  0  0  0  0  0  0  0  0  0
   14.0008   13.4040   14.7950 C   0  0  0  0  0  0  0  0  0  0  0  0
   15.1797   13.9886   14.0956 C   0  0  0  0  0  0  0  0  0  0  0  0
  1  2  1  0
  2  3  1  0
  3  4  1  0
  4  5  1  0
  5  6  2  0
  6  7  1  0
  7  8  2  0
  8  9  1  0
  9 10  2  0
 10 11  1  0
 11 12  2  0
 12 13  1  0
 13 14  2  0
 14 15  1  0
  4 16  1  0
 16 17  1  0
 17  4  1  0
 14  5  1  0
 12  7  1  0
M  END
>  <ref_pdb>  (87) 
c0300a

>  <inchikey>  (87) 
ISLBTTYBQSBXAF-UHFFFAOYSA-N

>  <original ID>  (87) 
ISLBTTYBQSBXAF-UHFFFAOYSA-N

>  <generation_date>  (87) 
None

>  <alias>  (87) 
None

>  <tags>  (87) 
[]

>  <ref_mols>  (87) 
c0839a,c1299a

>  <ref_url>  (87) 
None

>  <submitter_name>  (87) 
None

>  <exports>  (87) 
nan

>  <original SMILES>  (87) 
OCCC1(c2nc3ccccc3nc2Br)CC1

>  <method>  (87) 
None

>  <submitter_email>  (87) 
None

>  <HIPPO ID>  (87) 
65083

$$$$
UJQAVSAMIOQJNQ-UHFFFAOYSA-N
     RDKit          3D

 17 19  0  0  0  0  0  0  0  0999 V2000
   15.2881   11.6409   16.3608 C   0  0  0  0  0  0  0  0  0  0  0  0
   15.1264   12.6774   15.2324 C   0  0  0  0  0  0  0  0  0  0  0  0
   16.4521   13.4747   15.2914 C   0  0  0  0  0  0  0  0  0  0  0  0
   14.9060   11.8912   13.9017 C   0  0  0  0  0  0  0  0  0  0  0  0
   14.9267   10.5264   13.9338 N   0  0  0  0  0  0  0  0  0  0  0  0
   14.8694    9.8438   12.7672 C   0  0  0  0  0  0  0  0  0  0  0  0
   14.8560    8.4476   12.7714 C   0  0  0  0  0  0  0  0  0  0  0  0
   14.7903    7.7110   11.5806 C   0  0  0  0  0  0  0  0  0  0  0  0
   14.7773    8.3778   10.3597 C   0  0  0  0  0  0  0  0  0  0  0  0
   14.8078    9.7741   10.3398 C   0  0  0  0  0  0  0  0  0  0  0  0
   14.8111   10.5171   11.5254 C   0  0  0  0  0  0  0  0  0  0  0  0
   14.7362   11.8562   11.4861 N   0  0  0  0  0  0  0  0  0  0  0  0
   14.7390   12.5189   12.6745 C   0  0  0  0  0  0  0  0  0  0  0  0
   14.8668   14.3783   12.5892 Br  0  0  0  0  0  0  0  0  0  0  0  0
   13.9175   13.5872   15.4827 C   0  0  0  0  0  0  0  0  0  0  0  0
   13.4858   14.0673   16.8510 C   0  0  0  0  0  0  0  0  0  0  0  0
   14.0053   15.0586   15.8626 C   0  0  0  0  0  0  0  0  0  0  0  0
  1  2  1  0
  2  3  1  0
  2  4  1  0
  4  5  2  0
  5  6  1  0
  6  7  2  0
  7  8  1  0
  8  9  2  0
  9 10  1  0
 10 11  2  0
 11 12  1  0
 12 13  2  0
 13 14  1  0
  2 15  1  0
 15 16  1  0
 16 17  1  0
 13  4  1  0
 17 15  1  0
 11  6  1  0
M  END
>  <ref_pdb>  (88) 
c0300a

>  <inchikey>  (88) 
UJQAVSAMIOQJNQ-UHFFFAOYSA-N

>  <original ID>  (88) 
UJQAVSAMIOQJNQ-UHFFFAOYSA-N

>  <generation_date>  (88) 
None

>  <alias>  (88) 
None

>  <tags>  (88) 
[]

>  <ref_mols>  (88) 
c0839a,c1299a

>  <ref_url>  (88) 
None

>  <submitter_name>  (88) 
None

>  <exports>  (88) 
nan

>  <original SMILES>  (88) 
CC(C)(c1nc2ccccc2nc1Br)C1CC1

>  <method>  (88) 
None

>  <submitter_email>  (88) 
None

>  <HIPPO ID>  (88) 
65089

$$$$
WEMAMEZFHHEZDI-CQSZACIVSA-N
     RDKit          3D

 17 19  0  0  0  0  0  0  0  0999 V2000
   16.2024   13.3869   15.6483 C   0  0  0  0  0  0  0  0  0  0  0  0
   15.3307   14.1578   14.7182 C   0  0  0  0  0  0  0  0  0  0  0  0
   15.7430   15.6105   14.5582 C   0  0  0  0  0  0  0  0  0  0  0  0
   13.8624   13.9146   14.8416 C   0  0  0  0  0  0  0  0  0  0  0  0
   14.5794   13.4288   13.5935 C   0  0  1  0  0  0  0  0  0  0  0  0
   14.4735   14.1744   12.3198 C   0  0  0  0  0  0  0  0  0  0  0  0
   14.6924   11.9302   13.3037 C   0  0  0  0  0  0  0  0  0  0  0  0
   14.6634   10.9570   14.2812 C   0  0  0  0  0  0  0  0  0  0  0  0
   14.7416    9.6370   14.0326 N   0  0  0  0  0  0  0  0  0  0  0  0
   14.8262    9.2656   12.7420 C   0  0  0  0  0  0  0  0  0  0  0  0
   14.8174    7.9196   12.3972 C   0  0  0  0  0  0  0  0  0  0  0  0
   14.8110    7.0043   13.3754 F   0  0  0  0  0  0  0  0  0  0  0  0
   14.7979    7.4886   11.0733 C   0  0  0  0  0  0  0  0  0  0  0  0
   14.8314    8.4323   10.0554 C   0  0  0  0  0  0  0  0  0  0  0  0
   14.8905    9.7879   10.3767 C   0  0  0  0  0  0  0  0  0  0  0  0
   14.8648   10.2193   11.7062 C   0  0  0  0  0  0  0  0  0  0  0  0
   14.8350   11.5320   11.9969 N   0  0  0  0  0  0  0  0  0  0  0  0
  1  2  1  0
  2  3  1  0
  2  4  1  0
  4  5  1  0
  5  6  1  6
  5  7  1  0
  7  8  2  0
  8  9  1  0
  9 10  2  0
 10 11  1  0
 11 12  1  0
 11 13  2  0
 13 14  1  0
 14 15  2  0
 15 16  1  0
 16 17  2  0
  5  2  1  0
 17  7  1  0
 16 10  1  0
M  END
>  <ref_pdb>  (89) 
c0300a

>  <inchikey>  (89) 
WEMAMEZFHHEZDI-CQSZACIVSA-N

>  <original ID>  (89) 
WEMAMEZFHHEZDI-CQSZACIVSA-N

>  <generation_date>  (89) 
None

>  <alias>  (89) 
None

>  <tags>  (89) 
[]

>  <ref_mols>  (89) 
c0839a,c1299a

>  <ref_url>  (89) 
None

>  <submitter_name>  (89) 
None

>  <exports>  (89) 
nan

>  <original SMILES>  (89) 
CC1(C)C[C@]1(C)c1cnc2c(F)cccc2n1

>  <method>  (89) 
None

>  <submitter_email>  (89) 
None

>  <HIPPO ID>  (89) 
65122

$$$$
WEMAMEZFHHEZDI-AWEZNQCLSA-N
     RDKit          3D

 17 19  0  0  0  0  0  0  0  0999 V2000
   14.4849   13.6723   16.3263 C   0  0  0  0  0  0  0  0  0  0  0  0
   14.7198   14.3821   15.0350 C   0  0  0  0  0  0  0  0  0  0  0  0
   14.2385   15.8193   15.0853 C   0  0  0  0  0  0  0  0  0  0  0  0
   16.0804   14.2005   14.4844 C   0  0  0  0  0  0  0  0  0  0  0  0
   14.8989   13.6324   13.6923 C   0  0  2  0  0  0  0  0  0  0  0  0
   14.6348   14.3413   12.4111 C   0  0  0  0  0  0  0  0  0  0  0  0
   14.8294   12.1080   13.4292 C   0  0  0  0  0  0  0  0  0  0  0  0
   14.7759   11.1276   14.3931 C   0  0  0  0  0  0  0  0  0  0  0  0
   14.7758    9.8009   14.1298 N   0  0  0  0  0  0  0  0  0  0  0  0
   14.8287    9.4232   12.8388 C   0  0  0  0  0  0  0  0  0  0  0  0
   14.8017    8.0745   12.4872 C   0  0  0  0  0  0  0  0  0  0  0  0
   14.7904    7.1544   13.4612 F   0  0  0  0  0  0  0  0  0  0  0  0
   14.7807    7.6418   11.1611 C   0  0  0  0  0  0  0  0  0  0  0  0
   14.8257    8.5849   10.1440 C   0  0  0  0  0  0  0  0  0  0  0  0
   14.8907    9.9408   10.4759 C   0  0  0  0  0  0  0  0  0  0  0  0
   14.8761   10.3766   11.8094 C   0  0  0  0  0  0  0  0  0  0  0  0
   14.9021   11.6913   12.1129 N   0  0  0  0  0  0  0  0  0  0  0  0
  1  2  1  0
  2  3  1  0
  2  4  1  0
  4  5  1  0
  5  6  1  6
  5  7  1  0
  7  8  2  0
  8  9  1  0
  9 10  2  0
 10 11  1  0
 11 12  1  0
 11 13  2  0
 13 14  1  0
 14 15  2  0
 15 16  1  0
 16 17  2  0
  5  2  1  0
 17  7  1  0
 16 10  1  0
M  END
>  <ref_pdb>  (90) 
c0300a

>  <inchikey>  (90) 
WEMAMEZFHHEZDI-AWEZNQCLSA-N

>  <original ID>  (90) 
WEMAMEZFHHEZDI-AWEZNQCLSA-N

>  <generation_date>  (90) 
None

>  <alias>  (90) 
None

>  <tags>  (90) 
[]

>  <ref_mols>  (90) 
c0839a,c1299a

>  <ref_url>  (90) 
None

>  <submitter_name>  (90) 
None

>  <exports>  (90) 
nan

>  <original SMILES>  (90) 
CC1(C)C[C@@]1(C)c1cnc2c(F)cccc2n1

>  <method>  (90) 
None

>  <submitter_email>  (90) 
None

>  <HIPPO ID>  (90) 
65123

$$$$
QPXBNSAIQIHGBE-UHFFFAOYSA-N
     RDKit          3D

 17 19  0  0  0  0  0  0  0  0999 V2000
   14.3206   16.3274   13.0713 O   0  0  0  0  0  0  0  0  0  0  0  0
   15.0136   15.3922   13.8826 C   0  0  0  0  0  0  0  0  0  0  0  0
   14.4364   13.9545   14.0316 C   0  0  0  0  0  0  0  0  0  0  0  0
   14.4047   12.9892   12.8496 C   0  0  0  0  0  0  0  0  0  0  0  0
   14.5897   11.4998   13.0404 C   0  0  0  0  0  0  0  0  0  0  0  0
   14.6698   10.8197   14.2264 C   0  0  0  0  0  0  0  0  0  0  0  0
   14.8130    9.4789   14.2712 N   0  0  0  0  0  0  0  0  0  0  0  0
   14.8627    8.8113   13.0857 C   0  0  0  0  0  0  0  0  0  0  0  0
   14.9163    7.4303   13.0101 C   0  0  0  0  0  0  0  0  0  0  0  0
   15.0063    6.7328   14.1471 F   0  0  0  0  0  0  0  0  0  0  0  0
   14.8416    6.7325   11.8021 C   0  0  0  0  0  0  0  0  0  0  0  0
   14.7379    7.4324   10.6088 C   0  0  0  0  0  0  0  0  0  0  0  0
   14.7689    8.8178   10.6405 C   0  0  0  0  0  0  0  0  0  0  0  0
   14.8099    9.4893   11.8629 C   0  0  0  0  0  0  0  0  0  0  0  0
   14.7189   10.8065   11.8634 N   0  0  0  0  0  0  0  0  0  0  0  0
   15.0948   13.4172   11.6117 C   0  0  0  0  0  0  0  0  0  0  0  0
   13.6162   13.3299   11.5999 C   0  0  0  0  0  0  0  0  0  0  0  0
  1  2  1  0
  2  3  1  0
  3  4  1  0
  4  5  1  0
  5  6  2  0
  6  7  1  0
  7  8  2  0
  8  9  1  0
  9 10  1  0
  9 11  2  0
 11 12  1  0
 12 13  2  0
 13 14  1  0
 14 15  2  0
  4 16  1  0
 16 17  1  0
 17  4  1  0
 15  5  1  0
 14  8  1  0
M  END
>  <ref_pdb>  (91) 
c0300a

>  <inchikey>  (91) 
QPXBNSAIQIHGBE-UHFFFAOYSA-N

>  <original ID>  (91) 
QPXBNSAIQIHGBE-UHFFFAOYSA-N

>  <generation_date>  (91) 
None

>  <alias>  (91) 
None

>  <tags>  (91) 
[]

>  <ref_mols>  (91) 
c0839a,c1299a

>  <ref_url>  (91) 
None

>  <submitter_name>  (91) 
None

>  <exports>  (91) 
['/opt/xchem-fragalysis-2/maxwin/CHIKV_HIPPO/hippo_prod/CHIKV_prod11_recipes/Recipe_1G8PPKY_poses.sdf']

>  <original SMILES>  (91) 
OCCC1(c2cnc3c(F)cccc3n2)CC1

>  <method>  (91) 
None

>  <submitter_email>  (91) 
None

>  <HIPPO ID>  (91) 
65157

$$$$
VOFWBUSBEYKNPO-UHFFFAOYSA-N
     RDKit          3D

 17 19  0  0  0  0  0  0  0  0999 V2000
   15.4809   12.4943   13.9617 C   0  0  0  0  0  0  0  0  0  0  0  0
   14.7275   11.9908   12.6771 C   0  0  0  0  0  0  0  0  0  0  0  0
   15.1921   12.0552   11.1864 C   0  0  0  0  0  0  0  0  0  0  0  0
   14.5038   10.5277   12.8618 C   0  0  0  0  0  0  0  0  0  0  0  0
   14.4895    9.8979   14.0822 C   0  0  0  0  0  0  0  0  0  0  0  0
   14.6105    8.5683   14.1783 N   0  0  0  0  0  0  0  0  0  0  0  0
   14.7024    7.8679   13.0203 C   0  0  0  0  0  0  0  0  0  0  0  0
   14.8227    6.5015   13.0179 C   0  0  0  0  0  0  0  0  0  0  0  0
   14.9765    5.8852   14.1923 F   0  0  0  0  0  0  0  0  0  0  0  0
   14.7648    5.7444   11.8489 C   0  0  0  0  0  0  0  0  0  0  0  0
   14.6017    6.3786   10.6258 C   0  0  0  0  0  0  0  0  0  0  0  0
   14.5946    7.7617   10.5846 C   0  0  0  0  0  0  0  0  0  0  0  0
   14.6443    8.4789   11.7697 C   0  0  0  0  0  0  0  0  0  0  0  0
   14.5776    9.7913   11.7168 N   0  0  0  0  0  0  0  0  0  0  0  0
   13.6257   12.9373   12.6317 C   0  0  0  0  0  0  0  0  0  0  0  0
   14.1355   14.2947   12.2714 C   0  0  0  0  0  0  0  0  0  0  0  0
   13.1283   13.5366   11.3559 C   0  0  0  0  0  0  0  0  0  0  0  0
  1  2  1  0
  2  3  1  0
  2  4  1  0
  4  5  2  0
  5  6  1  0
  6  7  2  0
  7  8  1  0
  8  9  1  0
  8 10  2  0
 10 11  1  0
 11 12  2  0
 12 13  1  0
 13 14  2  0
  2 15  1  0
 15 16  1  0
 16 17  1  0
 14  4  1  0
 17 15  1  0
 13  7  1  0
M  END
>  <ref_pdb>  (92) 
c0300a

>  <inchikey>  (92) 
VOFWBUSBEYKNPO-UHFFFAOYSA-N

>  <original ID>  (92) 
VOFWBUSBEYKNPO-UHFFFAOYSA-N

>  <generation_date>  (92) 
None

>  <alias>  (92) 
None

>  <tags>  (92) 
[]

>  <ref_mols>  (92) 
c0839a,c1299a

>  <ref_url>  (92) 
None

>  <submitter_name>  (92) 
None

>  <exports>  (92) 
nan

>  <original SMILES>  (92) 
CC(C)(c1cnc2c(F)cccc2n1)C1CC1

>  <method>  (92) 
None

>  <submitter_email>  (92) 
None

>  <HIPPO ID>  (92) 
65161

$$$$
LKKVZVULZQADPF-HNNXBMFYSA-N
     RDKit          3D

 17 19  0  0  0  0  0  0  0  0999 V2000
   14.6100   13.4968   12.0053 C   0  0  0  0  0  0  0  0  0  0  0  0
   14.6459   12.0723   12.3842 C   0  0  0  0  0  0  0  0  0  0  0  0
   14.7169   11.2543   11.2974 N   0  0  0  0  0  0  0  0  0  0  0  0
   14.8113    9.9493   11.5311 C   0  0  0  0  0  0  0  0  0  0  0  0
   14.8005    9.0630   10.4552 C   0  0  0  0  0  0  0  0  0  0  0  0
   14.7767    7.6887   10.6738 C   0  0  0  0  0  0  0  0  0  0  0  0
   14.8344    7.2023   11.9757 C   0  0  0  0  0  0  0  0  0  0  0  0
   14.8807    8.0938   13.0548 C   0  0  0  0  0  0  0  0  0  0  0  0
   14.8447    9.4700   12.8612 C   0  0  0  0  0  0  0  0  0  0  0  0
   14.8040   10.3076   13.9262 N   0  0  0  0  0  0  0  0  0  0  0  0
   14.7339   11.6455   13.7125 C   0  0  0  0  0  0  0  0  0  0  0  0
   14.8562   12.6468   14.8983 C   0  0  2  0  0  0  0  0  0  0  0  0
   13.8099   13.7350   14.9200 C   0  0  0  0  0  0  0  0  0  0  0  0
   16.2868   13.0368   15.2723 C   0  0  0  0  0  0  0  0  0  0  0  0
   15.4557   12.2942   16.2708 C   0  0  0  0  0  0  0  0  0  0  0  0
   15.0657   13.0857   17.5015 C   0  0  0  0  0  0  0  0  0  0  0  0
   15.8185   10.8669   16.5786 C   0  0  0  0  0  0  0  0  0  0  0  0
  1  2  1  0
  2  3  2  0
  3  4  1  0
  4  5  2  0
  5  6  1  0
  6  7  2  0
  7  8  1  0
  8  9  2  0
  9 10  1  0
 10 11  2  0
 11 12  1  0
 12 13  1  1
 12 14  1  0
 14 15  1  0
 15 16  1  0
 15 17  1  0
 11  2  1  0
 15 12  1  0
  9  4  1  0
M  END
>  <ref_pdb>  (93) 
c0300a

>  <inchikey>  (93) 
LKKVZVULZQADPF-HNNXBMFYSA-N

>  <original ID>  (93) 
LKKVZVULZQADPF-HNNXBMFYSA-N

>  <generation_date>  (93) 
None

>  <alias>  (93) 
None

>  <tags>  (93) 
[]

>  <ref_mols>  (93) 
c0839a,c1299a

>  <ref_url>  (93) 
None

>  <submitter_name>  (93) 
None

>  <exports>  (93) 
nan

>  <original SMILES>  (93) 
Cc1nc2ccccc2nc1[C@]1(C)CC1(C)C

>  <method>  (93) 
None

>  <submitter_email>  (93) 
None

>  <HIPPO ID>  (93) 
65237

$$$$
LKKVZVULZQADPF-OAHLLOKOSA-N
     RDKit          3D

 17 19  0  0  0  0  0  0  0  0999 V2000
   14.3392   13.1929   11.7394 C   0  0  0  0  0  0  0  0  0  0  0  0
   14.6486   11.8519   12.2651 C   0  0  0  0  0  0  0  0  0  0  0  0
   14.7233   10.9393   11.2616 N   0  0  0  0  0  0  0  0  0  0  0  0
   14.8309    9.6677   11.6074 C   0  0  0  0  0  0  0  0  0  0  0  0
   14.7783    8.7006   10.6070 C   0  0  0  0  0  0  0  0  0  0  0  0
   14.7837    7.3514   10.9374 C   0  0  0  0  0  0  0  0  0  0  0  0
   14.8990    6.9800   12.2729 C   0  0  0  0  0  0  0  0  0  0  0  0
   14.9763    7.9582   13.2740 C   0  0  0  0  0  0  0  0  0  0  0  0
   14.9243    9.3122   12.9718 C   0  0  0  0  0  0  0  0  0  0  0  0
   14.9478   10.2454   13.9583 N   0  0  0  0  0  0  0  0  0  0  0  0
   14.8293   11.5596   13.6254 C   0  0  0  0  0  0  0  0  0  0  0  0
   14.9188   12.6407   14.7447 C   0  0  1  0  0  0  0  0  0  0  0  0
   13.9115   13.7534   14.6382 C   0  0  0  0  0  0  0  0  0  0  0  0
   15.1921   12.2244   16.1727 C   0  0  0  0  0  0  0  0  0  0  0  0
   16.2685   12.9800   15.4364 C   0  0  0  0  0  0  0  0  0  0  0  0
   16.5400   14.4291   15.7974 C   0  0  0  0  0  0  0  0  0  0  0  0
   17.5360   12.1770   15.2912 C   0  0  0  0  0  0  0  0  0  0  0  0
  1  2  1  0
  2  3  2  0
  3  4  1  0
  4  5  2  0
  5  6  1  0
  6  7  2  0
  7  8  1  0
  8  9  2  0
  9 10  1  0
 10 11  2  0
 11 12  1  0
 12 13  1  1
 12 14  1  0
 14 15  1  0
 15 16  1  0
 15 17  1  0
 11  2  1  0
 15 12  1  0
  9  4  1  0
M  END
>  <ref_pdb>  (94) 
c0300a

>  <inchikey>  (94) 
LKKVZVULZQADPF-OAHLLOKOSA-N

>  <original ID>  (94) 
LKKVZVULZQADPF-OAHLLOKOSA-N

>  <generation_date>  (94) 
None

>  <alias>  (94) 
None

>  <tags>  (94) 
[]

>  <ref_mols>  (94) 
c0839a,c1299a

>  <ref_url>  (94) 
None

>  <submitter_name>  (94) 
None

>  <exports>  (94) 
nan

>  <original SMILES>  (94) 
Cc1nc2ccccc2nc1[C@@]1(C)CC1(C)C

>  <method>  (94) 
None

>  <submitter_email>  (94) 
None

>  <HIPPO ID>  (94) 
65238

$$$$
HRCACOGSAJOGSI-UHFFFAOYSA-N
     RDKit          3D

 17 19  0  0  0  0  0  0  0  0999 V2000
   14.1807   13.2773   11.8167 C   0  0  0  0  0  0  0  0  0  0  0  0
   14.6007   11.9359   12.2299 C   0  0  0  0  0  0  0  0  0  0  0  0
   14.6725   11.0801   11.1760 N   0  0  0  0  0  0  0  0  0  0  0  0
   14.8146    9.7904   11.4514 C   0  0  0  0  0  0  0  0  0  0  0  0
   14.7621    8.8653   10.4129 C   0  0  0  0  0  0  0  0  0  0  0  0
   14.7486    7.5022   10.6884 C   0  0  0  0  0  0  0  0  0  0  0  0
   14.8560    7.0683   12.0056 C   0  0  0  0  0  0  0  0  0  0  0  0
   14.9496    8.0012   13.0447 C   0  0  0  0  0  0  0  0  0  0  0  0
   14.9147    9.3673   12.7938 C   0  0  0  0  0  0  0  0  0  0  0  0
   14.9724   10.2541   13.8154 N   0  0  0  0  0  0  0  0  0  0  0  0
   14.8727   11.5896   13.5567 C   0  0  0  0  0  0  0  0  0  0  0  0
   15.2855   12.5676   14.7291 C   0  0  0  0  0  0  0  0  0  0  0  0
   14.9274   14.0555   14.7289 C   0  0  0  0  0  0  0  0  0  0  0  0
   13.5227   14.2938   15.2313 C   0  0  0  0  0  0  0  0  0  0  0  0
   13.1830   15.6708   15.1814 O   0  0  0  0  0  0  0  0  0  0  0  0
   16.6583   12.2653   15.3343 C   0  0  0  0  0  0  0  0  0  0  0  0
   15.4281   11.9532   16.1210 C   0  0  0  0  0  0  0  0  0  0  0  0
  1  2  1  0
  2  3  2  0
  3  4  1  0
  4  5  2  0
  5  6  1  0
  6  7  2  0
  7  8  1  0
  8  9  2  0
  9 10  1  0
 10 11  2  0
 11 12  1  0
 12 13  1  0
 13 14  1  0
 14 15  1  0
 12 16  1  0
 16 17  1  0
 11  2  1  0
 17 12  1  0
  9  4  1  0
M  END
>  <ref_pdb>  (95) 
c0300a

>  <inchikey>  (95) 
HRCACOGSAJOGSI-UHFFFAOYSA-N

>  <original ID>  (95) 
HRCACOGSAJOGSI-UHFFFAOYSA-N

>  <generation_date>  (95) 
None

>  <alias>  (95) 
None

>  <tags>  (95) 
[]

>  <ref_mols>  (95) 
c0839a,c1299a

>  <ref_url>  (95) 
None

>  <submitter_name>  (95) 
None

>  <exports>  (95) 
['/opt/xchem-fragalysis-2/maxwin/CHIKV_HIPPO/hippo_prod/CHIKV_prod11_recipes/Recipe_1G8PPKY_poses.sdf']

>  <original SMILES>  (95) 
Cc1nc2ccccc2nc1C1(CCO)CC1

>  <method>  (95) 
None

>  <submitter_email>  (95) 
None

>  <HIPPO ID>  (95) 
65255

$$$$
WLEGWKBKLYJFBF-UHFFFAOYSA-N
     RDKit          3D

 17 19  0  0  0  0  0  0  0  0999 V2000
   13.9495   13.3897   11.8598 C   0  0  0  0  0  0  0  0  0  0  0  0
   14.6261   12.1813   12.3309 C   0  0  0  0  0  0  0  0  0  0  0  0
   14.7208   11.2657   11.3275 N   0  0  0  0  0  0  0  0  0  0  0  0
   14.8686    9.9957   11.6716 C   0  0  0  0  0  0  0  0  0  0  0  0
   14.7991    9.0153   10.6789 C   0  0  0  0  0  0  0  0  0  0  0  0
   14.8045    7.6657   11.0174 C   0  0  0  0  0  0  0  0  0  0  0  0
   14.9306    7.3072   12.3563 C   0  0  0  0  0  0  0  0  0  0  0  0
   15.0458    8.2984   13.3451 C   0  0  0  0  0  0  0  0  0  0  0  0
   15.0108    9.6547   13.0315 C   0  0  0  0  0  0  0  0  0  0  0  0
   15.1071   10.6105   13.9980 N   0  0  0  0  0  0  0  0  0  0  0  0
   14.9333   11.9225   13.6672 C   0  0  0  0  0  0  0  0  0  0  0  0
   15.0107   12.9944   14.8153 C   0  0  0  0  0  0  0  0  0  0  0  0
   15.3454   12.2471   16.1358 C   0  0  0  0  0  0  0  0  0  0  0  0
   13.6724   13.6881   15.0166 C   0  0  0  0  0  0  0  0  0  0  0  0
   16.1400   14.0282   14.6823 C   0  0  0  0  0  0  0  0  0  0  0  0
   16.0466   15.3740   13.9644 C   0  0  0  0  0  0  0  0  0  0  0  0
   16.1501   15.3375   15.4567 C   0  0  0  0  0  0  0  0  0  0  0  0
  1  2  1  0
  2  3  2  0
  3  4  1  0
  4  5  2  0
  5  6  1  0
  6  7  2  0
  7  8  1  0
  8  9  2  0
  9 10  1  0
 10 11  2  0
 11 12  1  0
 12 13  1  0
 12 14  1  0
 12 15  1  0
 15 16  1  0
 16 17  1  0
 11  2  1  0
 17 15  1  0
  9  4  1  0
M  END
>  <ref_pdb>  (96) 
c0300a

>  <inchikey>  (96) 
WLEGWKBKLYJFBF-UHFFFAOYSA-N

>  <original ID>  (96) 
WLEGWKBKLYJFBF-UHFFFAOYSA-N

>  <generation_date>  (96) 
None

>  <alias>  (96) 
None

>  <tags>  (96) 
[]

>  <ref_mols>  (96) 
c0839a,c1299a

>  <ref_url>  (96) 
None

>  <submitter_name>  (96) 
None

>  <exports>  (96) 
nan

>  <original SMILES>  (96) 
Cc1nc2ccccc2nc1C(C)(C)C1CC1

>  <method>  (96) 
None

>  <submitter_email>  (96) 
None

>  <HIPPO ID>  (96) 
65259

$$$$
CPUZRNWBYJLVQD-HDICACEKSA-N
     RDKit          3D

 20 24  0  0  0  0  0  0  0  0999 V2000
   14.7918    8.4713   11.5661 C   0  0  0  0  0  0  0  0  0  0  0  0
   14.8212    9.3563   10.4977 C   0  0  0  0  0  0  0  0  0  0  0  0
   14.8077   10.7375   10.7595 C   0  0  0  0  0  0  0  0  0  0  0  0
   14.7669   11.2817   12.0517 C   0  0  0  0  0  0  0  0  0  0  0  0
   14.8343   12.6394   12.2850 N   0  0  0  0  0  0  0  0  0  0  0  0
   14.8743   13.0910   13.5841 C   0  0  0  0  0  0  0  0  0  0  0  0
   15.1998   14.5791   13.8857 C   0  0  2  0  0  0  0  0  0  0  0  0
   16.5049   15.4247   13.5654 C   0  0  0  0  0  0  0  0  0  0  0  0
   15.6388   16.4794   14.2763 C   0  0  2  0  0  0  0  0  0  0  0  0
   15.9067   17.9346   14.3934 C   0  0  0  0  0  0  0  0  0  0  0  0
   14.8791   18.6430   15.2731 C   0  0  0  0  0  0  0  0  0  0  0  0
   14.6571   20.0233   14.6464 C   0  0  0  0  0  0  0  0  0  0  0  0
   15.6363   20.1260   13.4906 C   0  0  0  0  0  0  0  0  0  0  0  0
   15.7911   18.6821   13.0643 C   0  0  0  0  0  0  0  0  0  0  0  0
   15.3255   15.2800   15.2959 C   0  0  0  0  0  0  0  0  0  0  0  0
   14.4565   15.8753   13.5120 C   0  0  0  0  0  0  0  0  0  0  0  0
   14.7760   12.1384   14.5879 C   0  0  0  0  0  0  0  0  0  0  0  0
   14.7102   10.7955   14.3890 N   0  0  0  0  0  0  0  0  0  0  0  0
   14.7498   10.3643   13.1216 C   0  0  0  0  0  0  0  0  0  0  0  0
   14.7842    8.9872   12.8695 C   0  0  0  0  0  0  0  0  0  0  0  0
  1  2  2  0
  2  3  1  0
  3  4  2  0
  4  5  1  0
  5  6  2  0
  7  6  1  1
  7  8  1  0
  8  9  1  0
  9 10  1  1
 10 11  1  0
 11 12  1  0
 12 13  1  0
 13 14  1  0
  9 15  1  0
  9 16  1  0
  6 17  1  0
 17 18  2  0
 18 19  1  0
 19 20  2  0
 20  1  1  0
 19  4  1  0
 15  7  1  0
 16  7  1  0
 14 10  1  0
M  END
>  <ref_pdb>  (97) 
c0300a

>  <inchikey>  (97) 
CPUZRNWBYJLVQD-HDICACEKSA-N

>  <original ID>  (97) 
CPUZRNWBYJLVQD-HDICACEKSA-N

>  <generation_date>  (97) 
None

>  <alias>  (97) 
None

>  <tags>  (97) 
[]

>  <ref_mols>  (97) 
c0839a,c1299a

>  <ref_url>  (97) 
None

>  <submitter_name>  (97) 
None

>  <exports>  (97) 
nan

>  <original SMILES>  (97) 
c1ccc2nc([C@]34C[C@](C5CCCC5)(C3)C4)cnc2c1

>  <method>  (97) 
None

>  <submitter_email>  (97) 
None

>  <HIPPO ID>  (97) 
66237

$$$$
FDVSRZDPYNTQEB-HDICACEKSA-N
     RDKit          3D

 21 25  0  0  0  0  0  0  0  0999 V2000
   14.8192    7.5846   13.6225 F   0  0  0  0  0  0  0  0  0  0  0  0
   14.8055    8.5294   12.6709 C   0  0  0  0  0  0  0  0  0  0  0  0
   14.7870    8.1140   11.3354 C   0  0  0  0  0  0  0  0  0  0  0  0
   14.8210    9.0754   10.3367 C   0  0  0  0  0  0  0  0  0  0  0  0
   14.8464   10.4293   10.7043 C   0  0  0  0  0  0  0  0  0  0  0  0
   14.8284   10.8590   12.0428 C   0  0  0  0  0  0  0  0  0  0  0  0
   14.8720   12.1843   12.3682 N   0  0  0  0  0  0  0  0  0  0  0  0
   14.8910   12.5484   13.6973 C   0  0  0  0  0  0  0  0  0  0  0  0
   15.0917   14.0245   14.0326 C   0  0  2  0  0  0  0  0  0  0  0  0
   14.2640   15.0089   14.9392 C   0  0  0  0  0  0  0  0  0  0  0  0
   15.3448   15.9733   14.3005 C   0  0  2  0  0  0  0  0  0  0  0  0
   15.4853   17.4572   14.3307 C   0  0  0  0  0  0  0  0  0  0  0  0
   14.2963   18.1708   13.6854 C   0  0  0  0  0  0  0  0  0  0  0  0
   14.8537   19.5235   13.2770 C   0  0  0  0  0  0  0  0  0  0  0  0
   16.2582   19.2147   12.7839 C   0  0  0  0  0  0  0  0  0  0  0  0
   16.7062   17.9656   13.5483 C   0  0  0  0  0  0  0  0  0  0  0  0
   15.1804   15.1400   12.9964 C   0  0  0  0  0  0  0  0  0  0  0  0
   16.3214   14.7948   14.7269 C   0  0  0  0  0  0  0  0  0  0  0  0
   14.8392   11.5521   14.6467 C   0  0  0  0  0  0  0  0  0  0  0  0
   14.7894   10.2330   14.3542 N   0  0  0  0  0  0  0  0  0  0  0  0
   14.8107    9.8784   13.0520 C   0  0  0  0  0  0  0  0  0  0  0  0
  1  2  1  0
  2  3  2  0
  3  4  1  0
  4  5  2  0
  5  6  1  0
  6  7  2  0
  7  8  1  0
  9  8  1  6
  9 10  1  0
 10 11  1  0
 11 12  1  6
 12 13  1  0
 13 14  1  0
 14 15  1  0
 15 16  1  0
 11 17  1  0
 11 18  1  0
  8 19  2  0
 19 20  1  0
 20 21  2  0
 21  2  1  0
 21  6  1  0
 17  9  1  0
 18  9  1  0
 16 12  1  0
M  END
>  <ref_pdb>  (98) 
c0300a

>  <inchikey>  (98) 
FDVSRZDPYNTQEB-HDICACEKSA-N

>  <original ID>  (98) 
FDVSRZDPYNTQEB-HDICACEKSA-N

>  <generation_date>  (98) 
None

>  <alias>  (98) 
None

>  <tags>  (98) 
[]

>  <ref_mols>  (98) 
c0839a,c1299a

>  <ref_url>  (98) 
None

>  <submitter_name>  (98) 
None

>  <exports>  (98) 
nan

>  <original SMILES>  (98) 
Fc1cccc2nc([C@]34C[C@](C5CCCC5)(C3)C4)cnc12

>  <method>  (98) 
None

>  <submitter_email>  (98) 
None

>  <HIPPO ID>  (98) 
66411

$$$$
PCKGBOWJGCPXPX-HDICACEKSA-N
     RDKit          3D

 21 25  0  0  0  0  0  0  0  0999 V2000
   14.4318   13.6885   12.1693 Br  0  0  0  0  0  0  0  0  0  0  0  0
   14.6329   11.9092   12.5737 C   0  0  0  0  0  0  0  0  0  0  0  0
   14.6869   11.0857   11.5090 N   0  0  0  0  0  0  0  0  0  0  0  0
   14.8208    9.7974   11.7855 C   0  0  0  0  0  0  0  0  0  0  0  0
   14.7771    8.8869   10.7296 C   0  0  0  0  0  0  0  0  0  0  0  0
   14.8000    7.5198   10.9783 C   0  0  0  0  0  0  0  0  0  0  0  0
   14.9241    7.0724   12.2898 C   0  0  0  0  0  0  0  0  0  0  0  0
   15.0024    7.9906   13.3484 C   0  0  0  0  0  0  0  0  0  0  0  0
   14.9381    9.3611   13.1333 C   0  0  0  0  0  0  0  0  0  0  0  0
   14.9753   10.2377   14.1803 N   0  0  0  0  0  0  0  0  0  0  0  0
   14.8431   11.5576   13.9014 C   0  0  0  0  0  0  0  0  0  0  0  0
   15.0271   12.5738   15.0373 C   0  0  1  0  0  0  0  0  0  0  0  0
   14.0171   13.6587   15.5366 C   0  0  0  0  0  0  0  0  0  0  0  0
   15.2764   13.9977   16.3881 C   0  0  1  0  0  0  0  0  0  0  0  0
   15.3522   15.2469   17.1946 C   0  0  0  0  0  0  0  0  0  0  0  0
   14.2592   15.3140   18.2539 C   0  0  0  0  0  0  0  0  0  0  0  0
   14.7988   14.4988   19.4212 C   0  0  0  0  0  0  0  0  0  0  0  0
   16.3184   14.4741   19.2582 C   0  0  0  0  0  0  0  0  0  0  0  0
   16.6304   15.2969   18.0132 C   0  0  0  0  0  0  0  0  0  0  0  0
   15.4013   12.4132   16.5466 C   0  0  0  0  0  0  0  0  0  0  0  0
   16.0761   13.7630   15.0707 C   0  0  0  0  0  0  0  0  0  0  0  0
  1  2  1  0
  2  3  2  0
  3  4  1  0
  4  5  2  0
  5  6  1  0
  6  7  2  0
  7  8  1  0
  8  9  2  0
  9 10  1  0
 10 11  2  0
 12 11  1  6
 12 13  1  0
 13 14  1  0
 14 15  1  1
 15 16  1  0
 16 17  1  0
 17 18  1  0
 18 19  1  0
 14 20  1  0
 14 21  1  0
 11  2  1  0
 20 12  1  0
  9  4  1  0
 21 12  1  0
 19 15  1  0
M  END
>  <ref_pdb>  (99) 
c0300a

>  <inchikey>  (99) 
PCKGBOWJGCPXPX-HDICACEKSA-N

>  <original ID>  (99) 
PCKGBOWJGCPXPX-HDICACEKSA-N

>  <generation_date>  (99) 
None

>  <alias>  (99) 
None

>  <tags>  (99) 
[]

>  <ref_mols>  (99) 
c0839a,c1299a

>  <ref_url>  (99) 
None

>  <submitter_name>  (99) 
None

>  <exports>  (99) 
nan

>  <original SMILES>  (99) 
Brc1nc2ccccc2nc1[C@]12C[C@](C3CCCC3)(C1)C2

>  <method>  (99) 
None

>  <submitter_email>  (99) 
None

>  <HIPPO ID>  (99) 
66463

$$$$
SIWAMZRIHXLWJB-DQWLJDECSA-N
     RDKit          3D

 21 27  0  0  0  0  0  0  0  0999 V2000
   16.1154   18.7496   12.8742 O   0  0  0  0  0  0  0  0  0  0  0  0
   15.8108   18.1750   13.9143 C   0  0  0  0  0  0  0  0  0  0  0  0
   15.4602   18.8894   14.9977 O   0  0  0  0  0  0  0  0  0  0  0  0
   15.6676   16.6868   14.1056 C   0  0  2  0  0  0  0  0  0  0  0  0
   16.5568   15.6248   13.4924 C   0  0  2  0  0  0  0  0  0  0  0  0
   15.3336   15.0065   12.8247 C   0  0  2  0  0  0  0  0  0  0  0  0
   14.4500   16.0570   13.4629 C   0  0  1  0  0  0  0  0  0  0  0  0
   14.2279   15.1394   14.6701 C   0  0  2  0  0  0  0  0  0  0  0  0
   15.4459   15.7968   15.3279 C   0  0  1  0  0  0  0  0  0  0  0  0
   16.3275   14.7018   14.7038 C   0  0  1  0  0  0  0  0  0  0  0  0
   15.1015   14.0663   13.9993 C   0  0  2  0  0  0  0  0  0  0  0  0
   14.8464   12.5584   13.7102 C   0  0  0  0  0  0  0  0  0  0  0  0
   14.7836   11.5806   14.6795 C   0  0  0  0  0  0  0  0  0  0  0  0
   14.7411   10.2492   14.4173 N   0  0  0  0  0  0  0  0  0  0  0  0
   14.7866    9.8698   13.1275 C   0  0  0  0  0  0  0  0  0  0  0  0
   14.7830    8.5083   12.8039 C   0  0  0  0  0  0  0  0  0  0  0  0
   14.7799    8.0627   11.4744 C   0  0  0  0  0  0  0  0  0  0  0  0
   14.8254    8.9967   10.4463 C   0  0  0  0  0  0  0  0  0  0  0  0
   14.8512   10.3623   10.7677 C   0  0  0  0  0  0  0  0  0  0  0  0
   14.8172   10.8264   12.0933 C   0  0  0  0  0  0  0  0  0  0  0  0
   14.8483   12.1566   12.3907 N   0  0  0  0  0  0  0  0  0  0  0  0
  1  2  2  0
  2  3  1  0
  4  2  1  1
  4  5  1  0
  5  6  1  6
  6  7  1  1
  7  8  1  1
  8  9  1  1
  9 10  1  6
 10 11  1  0
 11 12  1  6
 12 13  2  0
 13 14  1  0
 14 15  2  0
 15 16  1  0
 16 17  2  0
 17 18  1  0
 18 19  2  0
 19 20  1  0
 20 21  2  0
  7  4  1  0
 11  8  1  0
 21 12  1  0
  9  4  1  0
 20 15  1  0
 10  5  1  6
 11  6  1  0
M  END
>  <ref_pdb>  (100) 
c0300a

>  <inchikey>  (100) 
SIWAMZRIHXLWJB-DQWLJDECSA-N

>  <original ID>  (100) 
SIWAMZRIHXLWJB-DQWLJDECSA-N

>  <generation_date>  (100) 
None

>  <alias>  (100) 
None

>  <tags>  (100) 
[]

>  <ref_mols>  (100) 
c0839a,c1299a

>  <ref_url>  (100) 
None

>  <submitter_name>  (100) 
None

>  <exports>  (100) 
nan

>  <original SMILES>  (100) 
O=C(O)[C@]12[C@@H]3[C@@H]4[C@H]1[C@@H]1[C@H]2[C@H]3[C@]41c1cnc2ccccc2n1

>  <method>  (100) 
None

>  <submitter_email>  (100) 
None

>  <HIPPO ID>  (100) 
66528

$$$$
GEFJXHWQCDWAIH-LDSXIXMCSA-N
     RDKit          3D

 22 28  0  0  0  0  0  0  0  0999 V2000
   15.4149   18.8004   12.7769 O   0  0  0  0  0  0  0  0  0  0  0  0
   15.7959   18.2211   13.7921 C   0  0  0  0  0  0  0  0  0  0  0  0
   16.4104   18.9014   14.7717 O   0  0  0  0  0  0  0  0  0  0  0  0
   15.6236   16.7551   14.0665 C   0  0  2  0  0  0  0  0  0  0  0  0
   16.3231   15.6891   13.2404 C   0  0  2  0  0  0  0  0  0  0  0  0
   14.9529   15.1200   12.8798 C   0  0  2  0  0  0  0  0  0  0  0  0
   14.2728   16.1487   13.7680 C   0  0  1  0  0  0  0  0  0  0  0  0
   14.3488   15.1689   14.9365 C   0  0  2  0  0  0  0  0  0  0  0  0
   15.6845   15.8524   15.2979 C   0  0  1  0  0  0  0  0  0  0  0  0
   16.3906   14.7784   14.4725 C   0  0  1  0  0  0  0  0  0  0  0  0
   15.0517   14.1349   14.0335 C   0  0  2  0  0  0  0  0  0  0  0  0
   14.8250   12.6283   13.7412 C   0  0  0  0  0  0  0  0  0  0  0  0
   14.7784   11.6479   14.7051 C   0  0  0  0  0  0  0  0  0  0  0  0
   14.7506   10.3214   14.4307 N   0  0  0  0  0  0  0  0  0  0  0  0
   14.7909    9.9422   13.1330 C   0  0  0  0  0  0  0  0  0  0  0  0
   14.8055    8.5883   12.7655 C   0  0  0  0  0  0  0  0  0  0  0  0
   14.8233    7.6528   13.7259 F   0  0  0  0  0  0  0  0  0  0  0  0
   14.7952    8.1565   11.4337 C   0  0  0  0  0  0  0  0  0  0  0  0
   14.8255    9.1055   10.4227 C   0  0  0  0  0  0  0  0  0  0  0  0
   14.8373   10.4634   10.7758 C   0  0  0  0  0  0  0  0  0  0  0  0
   14.8052   10.9059   12.1103 C   0  0  0  0  0  0  0  0  0  0  0  0
   14.8299   12.2335   12.4184 N   0  0  0  0  0  0  0  0  0  0  0  0
  1  2  2  0
  2  3  1  0
  4  2  1  1
  4  5  1  0
  5  6  1  6
  6  7  1  1
  7  8  1  1
  8  9  1  1
  9 10  1  6
 10 11  1  0
 11 12  1  6
 12 13  2  0
 13 14  1  0
 14 15  2  0
 15 16  1  0
 16 17  1  0
 16 18  2  0
 18 19  1  0
 19 20  2  0
 20 21  1  0
 21 22  2  0
  7  4  1  0
 11  8  1  0
 22 12  1  0
  9  4  1  0
 21 15  1  0
 10  5  1  6
 11  6  1  0
M  END
>  <ref_pdb>  (101) 
c0300a

>  <inchikey>  (101) 
GEFJXHWQCDWAIH-LDSXIXMCSA-N

>  <original ID>  (101) 
GEFJXHWQCDWAIH-LDSXIXMCSA-N

>  <generation_date>  (101) 
None

>  <alias>  (101) 
None

>  <tags>  (101) 
[]

>  <ref_mols>  (101) 
c0839a,c1299a

>  <ref_url>  (101) 
None

>  <submitter_name>  (101) 
None

>  <exports>  (101) 
nan

>  <original SMILES>  (101) 
O=C(O)[C@]12[C@@H]3[C@@H]4[C@H]1[C@@H]1[C@H]2[C@H]3[C@]41c1cnc2c(F)cccc2n1

>  <method>  (101) 
None

>  <submitter_email>  (101) 
None

>  <HIPPO ID>  (101) 
66547

$$$$
FCGPZAZMGWRFQE-UBFOHABKSA-N
     RDKit          3D

 22 28  0  0  0  0  0  0  0  0999 V2000
   15.8636   16.8035   17.8071 O   0  0  0  0  0  0  0  0  0  0  0  0
   15.0744   15.8690   17.8523 C   0  0  0  0  0  0  0  0  0  0  0  0
   14.0737   15.9004   18.7601 O   0  0  0  0  0  0  0  0  0  0  0  0
   15.0449   14.6685   16.9542 C   0  0  2  0  0  0  0  0  0  0  0  0
   16.0785   13.5520   16.8054 C   0  0  2  0  0  0  0  0  0  0  0  0
   16.0673   13.7435   15.2929 C   0  0  2  0  0  0  0  0  0  0  0  0
   15.0268   14.8522   15.4431 C   0  0  1  0  0  0  0  0  0  0  0  0
   13.9012   13.8295   15.3554 C   0  0  2  0  0  0  0  0  0  0  0  0
   13.9411   13.6176   16.8566 C   0  0  1  0  0  0  0  0  0  0  0  0
   14.9730   12.4912   16.6546 C   0  0  1  0  0  0  0  0  0  0  0  0
   14.9318   12.6935   15.1368 C   0  0  2  0  0  0  0  0  0  0  0  0
   14.7971   11.7066   13.9449 C   0  0  0  0  0  0  0  0  0  0  0  0
   14.8834   10.3718   14.1675 N   0  0  0  0  0  0  0  0  0  0  0  0
   14.8787    9.5468   13.0752 C   0  0  0  0  0  0  0  0  0  0  0  0
   14.9029    8.1626   13.2195 C   0  0  0  0  0  0  0  0  0  0  0  0
   14.8392    7.3001   12.1119 C   0  0  0  0  0  0  0  0  0  0  0  0
   14.7802    7.8170   10.8211 C   0  0  0  0  0  0  0  0  0  0  0  0
   14.7990    9.1964   10.6445 C   0  0  0  0  0  0  0  0  0  0  0  0
   14.8168   10.0528   11.7465 C   0  0  0  0  0  0  0  0  0  0  0  0
   14.7137   11.3569   11.5268 N   0  0  0  0  0  0  0  0  0  0  0  0
   14.6561   12.1349   12.6266 C   0  0  0  0  0  0  0  0  0  0  0  0
   14.6820   13.9556   12.3178 Br  0  0  0  0  0  0  0  0  0  0  0  0
  1  2  2  0
  2  3  1  0
  4  2  1  1
  4  5  1  0
  5  6  1  6
  6  7  1  1
  7  8  1  6
  8  9  1  1
  9 10  1  6
 10 11  1  0
 11 12  1  6
 12 13  2  0
 13 14  1  0
 14 15  2  0
 15 16  1  0
 16 17  2  0
 17 18  1  0
 18 19  2  0
 19 20  1  0
 20 21  2  0
 21 22  1  0
  7  4  1  0
 11  8  1  0
 21 12  1  0
  9  4  1  0
 19 14  1  0
 10  5  1  1
 11  6  1  0
M  END
>  <ref_pdb>  (102) 
c0300a

>  <inchikey>  (102) 
FCGPZAZMGWRFQE-UBFOHABKSA-N

>  <original ID>  (102) 
FCGPZAZMGWRFQE-UBFOHABKSA-N

>  <generation_date>  (102) 
None

>  <alias>  (102) 
None

>  <tags>  (102) 
[]

>  <ref_mols>  (102) 
c0839a,c1299a

>  <ref_url>  (102) 
None

>  <submitter_name>  (102) 
None

>  <exports>  (102) 
nan

>  <original SMILES>  (102) 
O=C(O)[C@]12[C@@H]3[C@@H]4[C@H]1[C@@H]1[C@H]2[C@H]3[C@]41c1nc2ccccc2nc1Br

>  <method>  (102) 
None

>  <submitter_email>  (102) 
None

>  <HIPPO ID>  (102) 
66559

$$$$
FDESHHQFFKXAJI-UZAZDDAOSA-N
     RDKit          3D

 22 28  0  0  0  0  0  0  0  0999 V2000
   13.7915   13.3527   11.6949 C   0  0  0  0  0  0  0  0  0  0  0  0
   14.5244   12.1440   12.0833 C   0  0  0  0  0  0  0  0  0  0  0  0
   14.6465   11.2173   11.1071 N   0  0  0  0  0  0  0  0  0  0  0  0
   14.8404    9.9688   11.5145 C   0  0  0  0  0  0  0  0  0  0  0  0
   14.7928    8.9461   10.5683 C   0  0  0  0  0  0  0  0  0  0  0  0
   14.8141    7.6133   10.9682 C   0  0  0  0  0  0  0  0  0  0  0  0
   14.9398    7.3118   12.3215 C   0  0  0  0  0  0  0  0  0  0  0  0
   15.0370    8.3432   13.2689 C   0  0  0  0  0  0  0  0  0  0  0  0
   14.9814    9.6835   12.8975 C   0  0  0  0  0  0  0  0  0  0  0  0
   15.0451   10.6735   13.8324 N   0  0  0  0  0  0  0  0  0  0  0  0
   14.8298   11.9477   13.4277 C   0  0  0  0  0  0  0  0  0  0  0  0
   14.9532   13.0710   14.4875 C   0  0  2  0  0  0  0  0  0  0  0  0
   15.7038   14.4283   14.3767 C   0  0  2  0  0  0  0  0  0  0  0  0
   16.2839   14.2341   15.7846 C   0  0  2  0  0  0  0  0  0  0  0  0
   15.5310   12.8977   15.9050 C   0  0  1  0  0  0  0  0  0  0  0  0
   14.3230   13.6413   16.4931 C   0  0  2  0  0  0  0  0  0  0  0  0
   13.7819   13.8438   15.0840 C   0  0  1  0  0  0  0  0  0  0  0  0
   14.5219   15.1637   14.9842 C   0  0  1  0  0  0  0  0  0  0  0  0
   15.0807   14.9683   16.3853 C   0  0  2  0  0  0  0  0  0  0  0  0
   15.1170   16.0215   17.4574 C   0  0  0  0  0  0  0  0  0  0  0  0
   15.3466   15.8492   18.6474 O   0  0  0  0  0  0  0  0  0  0  0  0
   14.8463   17.2701   17.0119 O   0  0  0  0  0  0  0  0  0  0  0  0
  1  2  1  0
  2  3  2  0
  3  4  1  0
  4  5  2  0
  5  6  1  0
  6  7  2  0
  7  8  1  0
  8  9  2  0
  9 10  1  0
 10 11  2  0
 12 11  1  6
 12 13  1  0
 14 13  1  6
 15 14  1  6
 16 15  1  6
 17 16  1  1
 18 17  1  1
 18 19  1  0
 19 20  1  1
 20 21  2  0
 20 22  1  0
 11  2  1  0
 15 12  1  0
 19 16  1  0
  9  4  1  0
 17 12  1  0
 13 18  1  1
 19 14  1  0
M  END
>  <ref_pdb>  (103) 
c0300a

>  <inchikey>  (103) 
FDESHHQFFKXAJI-UZAZDDAOSA-N

>  <original ID>  (103) 
FDESHHQFFKXAJI-UZAZDDAOSA-N

>  <generation_date>  (103) 
None

>  <alias>  (103) 
None

>  <tags>  (103) 
[]

>  <ref_mols>  (103) 
c0839a,c1299a

>  <ref_url>  (103) 
None

>  <submitter_name>  (103) 
None

>  <exports>  (103) 
nan

>  <original SMILES>  (103) 
Cc1nc2ccccc2nc1[C@]12[C@@H]3[C@@H]4[C@H]1[C@@H]1[C@H]2[C@H]3[C@]41C(=O)O

>  <method>  (103) 
None

>  <submitter_email>  (103) 
None

>  <HIPPO ID>  (103) 
66589

$$$$
YFCWJGDZDPBTFK-MRVPVSSYSA-N
     RDKit          3D

 17 18  0  0  0  0  0  0  0  0999 V2000
   16.2088    2.4259   14.1354 C   0  0  0  0  0  0  0  0  0  0  0  0
   16.3192    2.7347   15.6246 C   0  0  2  0  0  0  0  0  0  0  0  0
   17.0857    4.0618   15.8165 C   0  0  0  0  0  0  0  0  0  0  0  0
   18.5206    3.9343   15.4978 N   0  0  0  0  0  0  0  0  0  0  0  0
   19.0915    2.9142   16.3999 C   0  0  0  0  0  0  0  0  0  0  0  0
   18.3696    1.5548   16.3455 C   0  0  0  0  0  0  0  0  0  0  0  0
   16.9137    1.6610   16.4418 N   0  0  0  0  0  0  0  0  0  0  0  0
   16.2149    0.4543   16.5306 C   0  0  0  0  0  0  0  0  0  0  0  0
   15.5566   -0.0604   15.6401 O   0  0  0  0  0  0  0  0  0  0  0  0
   16.2272   -0.2393   17.8230 C   0  0  0  0  0  0  0  0  0  0  0  0
   17.1489   -1.2773   18.0185 C   0  0  0  0  0  0  0  0  0  0  0  0
   17.1377   -1.9953   19.2120 C   0  0  0  0  0  0  0  0  0  0  0  0
   16.2219   -1.6587   20.2065 C   0  0  0  0  0  0  0  0  0  0  0  0
   15.2919   -0.6433   19.9805 C   0  0  0  0  0  0  0  0  0  0  0  0
   14.4360   -0.3230   20.9635 F   0  0  0  0  0  0  0  0  0  0  0  0
   15.2137    0.0259   18.7559 C   0  0  0  0  0  0  0  0  0  0  0  0
   14.2374    1.0403   18.5536 N   0  0  0  0  0  0  0  0  0  0  0  0
  2  1  1  6
  2  3  1  0
  3  4  1  0
  4  5  1  0
  5  6  1  0
  6  7  1  0
  7  8  1  0
  8  9  2  0
  8 10  1  0
 10 11  2  0
 11 12  1  0
 12 13  2  0
 13 14  1  0
 14 15  1  0
 14 16  2  0
 16 17  1  0
  7  2  1  0
 16 10  1  0
M  END
>  <ref_pdb>  (104) 
c0300a

>  <inchikey>  (104) 
YFCWJGDZDPBTFK-MRVPVSSYSA-N

>  <original ID>  (104) 
YFCWJGDZDPBTFK-MRVPVSSYSA-N

>  <generation_date>  (104) 
None

>  <alias>  (104) 
None

>  <tags>  (104) 
[]

>  <ref_mols>  (104) 
c0398a,c0585a

>  <ref_url>  (104) 
None

>  <submitter_name>  (104) 
None

>  <exports>  (104) 
nan

>  <original SMILES>  (104) 
C[C@@H]1CNCCN1C(=O)c1cccc(F)c1N

>  <method>  (104) 
None

>  <submitter_email>  (104) 
None

>  <HIPPO ID>  (104) 
78057

$$$$
YFCWJGDZDPBTFK-MRVPVSSYSA-N
     RDKit          3D

 17 18  0  0  0  0  0  0  0  0999 V2000
   15.9643    2.6846   14.2296 C   0  0  0  0  0  0  0  0  0  0  0  0
   16.7867    3.0479   15.4629 C   0  0  2  0  0  0  0  0  0  0  0  0
   18.0745    3.7650   15.0199 C   0  0  0  0  0  0  0  0  0  0  0  0
   19.0815    2.8109   14.5504 N   0  0  0  0  0  0  0  0  0  0  0  0
   19.4670    1.9120   15.6504 C   0  0  0  0  0  0  0  0  0  0  0  0
   18.4268    1.7225   16.7696 C   0  0  0  0  0  0  0  0  0  0  0  0
   17.0514    1.8446   16.2905 N   0  0  0  0  0  0  0  0  0  0  0  0
   15.9736    1.4207   17.0781 C   0  0  0  0  0  0  0  0  0  0  0  0
   14.9514    2.1020   17.1345 O   0  0  0  0  0  0  0  0  0  0  0  0
   16.0484    0.2127   17.9414 C   0  0  0  0  0  0  0  0  0  0  0  0
   16.7549   -0.9319   17.5403 C   0  0  0  0  0  0  0  0  0  0  0  0
   16.8633   -2.0327   18.3952 C   0  0  0  0  0  0  0  0  0  0  0  0
   16.2648   -1.9945   19.6510 C   0  0  0  0  0  0  0  0  0  0  0  0
   15.5237   -0.8768   20.0188 C   0  0  0  0  0  0  0  0  0  0  0  0
   14.9873   -0.8233   21.2461 F   0  0  0  0  0  0  0  0  0  0  0  0
   15.3337    0.2054   19.1553 C   0  0  0  0  0  0  0  0  0  0  0  0
   14.5985    1.3337   19.6192 N   0  0  0  0  0  0  0  0  0  0  0  0
  2  1  1  6
  2  3  1  0
  3  4  1  0
  4  5  1  0
  5  6  1  0
  6  7  1  0
  7  8  1  0
  8  9  2  0
  8 10  1  0
 10 11  2  0
 11 12  1  0
 12 13  2  0
 13 14  1  0
 14 15  1  0
 14 16  2  0
 16 17  1  0
  7  2  1  0
 16 10  1  0
M  END
>  <ref_pdb>  (105) 
c0300a

>  <inchikey>  (105) 
YFCWJGDZDPBTFK-MRVPVSSYSA-N

>  <original ID>  (105) 
YFCWJGDZDPBTFK-MRVPVSSYSA-N

>  <generation_date>  (105) 
None

>  <alias>  (105) 
None

>  <tags>  (105) 
[]

>  <ref_mols>  (105) 
c0398a,c0585a

>  <ref_url>  (105) 
None

>  <submitter_name>  (105) 
None

>  <exports>  (105) 
nan

>  <original SMILES>  (105) 
C[C@@H]1CNCCN1C(=O)c1cccc(F)c1N

>  <method>  (105) 
None

>  <submitter_email>  (105) 
None

>  <HIPPO ID>  (105) 
78058

$$$$
JVKYNUIXTMQEJZ-GFCCVEGCSA-N
     RDKit          3D

 17 18  0  0  0  0  0  0  0  0999 V2000
   16.4995    1.6020   14.8539 C   0  0  0  0  0  0  0  0  0  0  0  0
   18.0093    1.6788   15.0131 C   0  0  0  0  0  0  0  0  0  0  0  0
   18.6018    2.5995   16.0769 C   0  0  2  0  0  0  0  0  0  0  0  0
   18.1751    2.1543   17.4897 C   0  0  0  0  0  0  0  0  0  0  0  0
   16.7776    2.4859   17.6962 N   0  0  0  0  0  0  0  0  0  0  0  0
   15.7425    1.5829   17.8817 C   0  0  0  0  0  0  0  0  0  0  0  0
   14.5673    1.9058   17.7681 O   0  0  0  0  0  0  0  0  0  0  0  0
   16.0022    0.2668   18.4773 C   0  0  0  0  0  0  0  0  0  0  0  0
   16.5844   -0.8158   17.8151 C   0  0  0  0  0  0  0  0  0  0  0  0
   16.7611   -2.0224   18.4988 C   0  0  0  0  0  0  0  0  0  0  0  0
   16.3414   -2.1411   19.8249 C   0  0  0  0  0  0  0  0  0  0  0  0
   15.7385   -1.0571   20.4509 C   0  0  0  0  0  0  0  0  0  0  0  0
   15.3356   -1.1474   21.7220 F   0  0  0  0  0  0  0  0  0  0  0  0
   15.5555    0.1389   19.7905 C   0  0  0  0  0  0  0  0  0  0  0  0
   16.4776    3.9076   17.5056 C   0  0  0  0  0  0  0  0  0  0  0  0
   17.0239    4.4932   16.1848 C   0  0  0  0  0  0  0  0  0  0  0  0
   18.3631    4.0303   15.7971 N   0  0  0  0  0  0  0  0  0  0  0  0
  1  2  1  0
  3  2  1  6
  3  4  1  0
  4  5  1  0
  5  6  1  0
  6  7  2  0
  6  8  1  0
  8  9  2  0
  9 10  1  0
 10 11  2  0
 11 12  1  0
 12 13  1  0
 12 14  2  0
  5 15  1  0
 15 16  1  0
 16 17  1  0
 17  3  1  0
 14  8  1  0
M  END
>  <ref_pdb>  (106) 
c0300a

>  <inchikey>  (106) 
JVKYNUIXTMQEJZ-GFCCVEGCSA-N

>  <original ID>  (106) 
JVKYNUIXTMQEJZ-GFCCVEGCSA-N

>  <generation_date>  (106) 
None

>  <alias>  (106) 
None

>  <tags>  (106) 
[]

>  <ref_mols>  (106) 
c0398a,c0585a

>  <ref_url>  (106) 
None

>  <submitter_name>  (106) 
None

>  <exports>  (106) 
nan

>  <original SMILES>  (106) 
CC[C@@H]1CN(C(=O)c2cccc(F)c2)CCN1

>  <method>  (106) 
None

>  <submitter_email>  (106) 
None

>  <HIPPO ID>  (106) 
78109

$$$$
JVKYNUIXTMQEJZ-GFCCVEGCSA-N
     RDKit          3D

 17 18  0  0  0  0  0  0  0  0999 V2000
   19.0749    0.2706   16.3215 C   0  0  0  0  0  0  0  0  0  0  0  0
   19.5342    1.7073   16.4417 C   0  0  0  0  0  0  0  0  0  0  0  0
   18.4229    2.7596   16.3453 C   0  0  2  0  0  0  0  0  0  0  0  0
   17.1816    2.3964   17.2304 C   0  0  0  0  0  0  0  0  0  0  0  0
   16.1525    1.7187   16.4498 N   0  0  0  0  0  0  0  0  0  0  0  0
   15.8043    0.3747   16.6016 C   0  0  0  0  0  0  0  0  0  0  0  0
   15.4440   -0.3494   15.6787 O   0  0  0  0  0  0  0  0  0  0  0  0
   15.8981   -0.2807   17.9179 C   0  0  0  0  0  0  0  0  0  0  0  0
   16.5521   -1.5216   17.9955 C   0  0  0  0  0  0  0  0  0  0  0  0
   16.6191   -2.2085   19.2039 C   0  0  0  0  0  0  0  0  0  0  0  0
   15.9936   -1.6717   20.3236 C   0  0  0  0  0  0  0  0  0  0  0  0
   15.2939   -0.4701   20.2190 C   0  0  0  0  0  0  0  0  0  0  0  0
   14.6386   -0.0081   21.2923 F   0  0  0  0  0  0  0  0  0  0  0  0
   15.2437    0.2429   19.0284 C   0  0  0  0  0  0  0  0  0  0  0  0
   15.7713    2.3968   15.2072 C   0  0  0  0  0  0  0  0  0  0  0  0
   16.7572    3.4841   14.7584 C   0  0  0  0  0  0  0  0  0  0  0  0
   18.1442    3.0385   14.9122 N   0  0  0  0  0  0  0  0  0  0  0  0
  1  2  1  0
  3  2  1  6
  3  4  1  0
  4  5  1  0
  5  6  1  0
  6  7  2  0
  6  8  1  0
  8  9  2  0
  9 10  1  0
 10 11  2  0
 11 12  1  0
 12 13  1  0
 12 14  2  0
  5 15  1  0
 15 16  1  0
 16 17  1  0
 17  3  1  0
 14  8  1  0
M  END
>  <ref_pdb>  (107) 
c0300a

>  <inchikey>  (107) 
JVKYNUIXTMQEJZ-GFCCVEGCSA-N

>  <original ID>  (107) 
JVKYNUIXTMQEJZ-GFCCVEGCSA-N

>  <generation_date>  (107) 
None

>  <alias>  (107) 
None

>  <tags>  (107) 
[]

>  <ref_mols>  (107) 
c0398a,c0585a

>  <ref_url>  (107) 
None

>  <submitter_name>  (107) 
None

>  <exports>  (107) 
nan

>  <original SMILES>  (107) 
CC[C@@H]1CN(C(=O)c2cccc(F)c2)CCN1

>  <method>  (107) 
None

>  <submitter_email>  (107) 
None

>  <HIPPO ID>  (107) 
78110

$$$$
BIFDCTKTMMWBOQ-SECBINFHSA-N
     RDKit          3D

 18 19  0  0  0  0  0  0  0  0999 V2000
   19.4242    0.0390   16.8961 C   0  0  0  0  0  0  0  0  0  0  0  0
   18.9137    1.0006   15.8404 C   0  0  0  0  0  0  0  0  0  0  0  0
   18.5763    2.4103   16.3480 C   0  0  2  0  0  0  0  0  0  0  0  0
   17.4502    2.4215   17.4186 C   0  0  0  0  0  0  0  0  0  0  0  0
   16.1528    2.0844   16.8346 N   0  0  0  0  0  0  0  0  0  0  0  0
   15.8419    0.7172   16.7061 C   0  0  0  0  0  0  0  0  0  0  0  0
   15.6535    0.1721   15.6244 O   0  0  0  0  0  0  0  0  0  0  0  0
   15.8325   -0.1215   17.9320 C   0  0  0  0  0  0  0  0  0  0  0  0
   16.3999   -1.4057   17.8241 C   0  0  0  0  0  0  0  0  0  0  0  0
   16.4990   -2.2361   18.9368 C   0  0  0  0  0  0  0  0  0  0  0  0
   15.9798   -1.8062   20.1499 C   0  0  0  0  0  0  0  0  0  0  0  0
   15.3599   -0.5603   20.2340 C   0  0  0  0  0  0  0  0  0  0  0  0
   14.8131   -0.1981   21.4061 F   0  0  0  0  0  0  0  0  0  0  0  0
   15.3125    0.3311   19.1534 C   0  0  0  0  0  0  0  0  0  0  0  0
   14.5883    1.5316   19.2749 N   0  0  0  0  0  0  0  0  0  0  0  0
   15.8257    2.9581   15.7086 C   0  0  0  0  0  0  0  0  0  0  0  0
   16.9297    3.0077   14.6435 C   0  0  0  0  0  0  0  0  0  0  0  0
   18.2587    3.3147   15.2091 N   0  0  0  0  0  0  0  0  0  0  0  0
  1  2  1  0
  3  2  1  6
  3  4  1  0
  4  5  1  0
  5  6  1  0
  6  7  2  0
  6  8  1  0
  8  9  2  0
  9 10  1  0
 10 11  2  0
 11 12  1  0
 12 13  1  0
 12 14  2  0
 14 15  1  0
  5 16  1  0
 16 17  1  0
 17 18  1  0
 18  3  1  0
 14  8  1  0
M  END
>  <ref_pdb>  (108) 
c0300a

>  <inchikey>  (108) 
BIFDCTKTMMWBOQ-SECBINFHSA-N

>  <original ID>  (108) 
BIFDCTKTMMWBOQ-SECBINFHSA-N

>  <generation_date>  (108) 
None

>  <alias>  (108) 
None

>  <tags>  (108) 
[]

>  <ref_mols>  (108) 
c0398a,c0585a

>  <ref_url>  (108) 
None

>  <submitter_name>  (108) 
None

>  <exports>  (108) 
nan

>  <original SMILES>  (108) 
CC[C@@H]1CN(C(=O)c2cccc(F)c2N)CCN1

>  <method>  (108) 
None

>  <submitter_email>  (108) 
None

>  <HIPPO ID>  (108) 
78907

$$$$
BIFDCTKTMMWBOQ-SECBINFHSA-N
     RDKit          3D

 18 19  0  0  0  0  0  0  0  0999 V2000
   19.4987    0.0939   16.8090 C   0  0  0  0  0  0  0  0  0  0  0  0
   18.9703    1.0963   15.8045 C   0  0  0  0  0  0  0  0  0  0  0  0
   18.4903    2.4257   16.4105 C   0  0  2  0  0  0  0  0  0  0  0  0
   17.2419    2.2275   17.3072 C   0  0  0  0  0  0  0  0  0  0  0  0
   16.1521    1.6921   16.5016 N   0  0  0  0  0  0  0  0  0  0  0  0
   15.8145    0.3376   16.5479 C   0  0  0  0  0  0  0  0  0  0  0  0
   15.4472   -0.3255   15.5868 O   0  0  0  0  0  0  0  0  0  0  0  0
   15.8621   -0.3687   17.8403 C   0  0  0  0  0  0  0  0  0  0  0  0
   16.6518   -1.5265   17.9260 C   0  0  0  0  0  0  0  0  0  0  0  0
   16.7557   -2.2157   19.1306 C   0  0  0  0  0  0  0  0  0  0  0  0
   16.0616   -1.7496   20.2421 C   0  0  0  0  0  0  0  0  0  0  0  0
   15.2266   -0.6378   20.1238 C   0  0  0  0  0  0  0  0  0  0  0  0
   14.5512   -0.2238   21.2076 F   0  0  0  0  0  0  0  0  0  0  0  0
   15.0496    0.0305   18.9085 C   0  0  0  0  0  0  0  0  0  0  0  0
   14.1810    1.1528   18.8269 N   0  0  0  0  0  0  0  0  0  0  0  0
   15.8357    2.4938   15.3174 C   0  0  0  0  0  0  0  0  0  0  0  0
   17.0669    2.9544   14.5133 C   0  0  0  0  0  0  0  0  0  0  0  0
   18.1995    3.4204   15.3389 N   0  0  0  0  0  0  0  0  0  0  0  0
  1  2  1  0
  3  2  1  6
  3  4  1  0
  4  5  1  0
  5  6  1  0
  6  7  2  0
  6  8  1  0
  8  9  2  0
  9 10  1  0
 10 11  2  0
 11 12  1  0
 12 13  1  0
 12 14  2  0
 14 15  1  0
  5 16  1  0
 16 17  1  0
 17 18  1  0
 18  3  1  0
 14  8  1  0
M  END
>  <ref_pdb>  (109) 
c0300a

>  <inchikey>  (109) 
BIFDCTKTMMWBOQ-SECBINFHSA-N

>  <original ID>  (109) 
BIFDCTKTMMWBOQ-SECBINFHSA-N

>  <generation_date>  (109) 
None

>  <alias>  (109) 
None

>  <tags>  (109) 
[]

>  <ref_mols>  (109) 
c0398a,c0585a

>  <ref_url>  (109) 
None

>  <submitter_name>  (109) 
None

>  <exports>  (109) 
nan

>  <original SMILES>  (109) 
CC[C@@H]1CN(C(=O)c2cccc(F)c2N)CCN1

>  <method>  (109) 
None

>  <submitter_email>  (109) 
None

>  <HIPPO ID>  (109) 
78908

$$$$
PPATYTBZUKHXEW-SSDOTTSWSA-N
     RDKit          3D

 18 19  0  0  0  0  0  0  0  0999 V2000
   16.3212    2.4238   14.0877 C   0  0  0  0  0  0  0  0  0  0  0  0
   16.3010    2.7339   15.5747 C   0  0  2  0  0  0  0  0  0  0  0  0
   17.0453    4.0624   15.8343 C   0  0  0  0  0  0  0  0  0  0  0  0
   18.4977    3.9787   15.6075 N   0  0  0  0  0  0  0  0  0  0  0  0
   19.0561    2.7306   16.1780 C   0  0  0  0  0  0  0  0  0  0  0  0
   18.1063    1.9162   17.0842 C   0  0  0  0  0  0  0  0  0  0  0  0
   16.8343    1.6510   16.4156 N   0  0  0  0  0  0  0  0  0  0  0  0
   16.1858    0.4262   16.4895 C   0  0  0  0  0  0  0  0  0  0  0  0
   15.4883   -0.0655   15.6153 O   0  0  0  0  0  0  0  0  0  0  0  0
   16.2517   -0.3171   17.7505 C   0  0  0  0  0  0  0  0  0  0  0  0
   15.3782    0.0789   18.7697 C   0  0  0  0  0  0  0  0  0  0  0  0
   15.3547   -0.6495   19.9471 C   0  0  0  0  0  0  0  0  0  0  0  0
   14.5527   -0.2627   20.9490 F   0  0  0  0  0  0  0  0  0  0  0  0
   16.1712   -1.7654   20.0980 C   0  0  0  0  0  0  0  0  0  0  0  0
   16.1670   -2.4445   21.2507 F   0  0  0  0  0  0  0  0  0  0  0  0
   17.0201   -2.1810   19.0760 C   0  0  0  0  0  0  0  0  0  0  0  0
   17.0588   -1.4504   17.8920 C   0  0  0  0  0  0  0  0  0  0  0  0
   17.9022   -1.8298   16.8858 O   0  0  0  0  0  0  0  0  0  0  0  0
  2  1  1  6
  2  3  1  0
  3  4  1  0
  4  5  1  0
  5  6  1  0
  6  7  1  0
  7  8  1  0
  8  9  2  0
  8 10  1  0
 10 11  2  0
 11 12  1  0
 12 13  1  0
 12 14  2  0
 14 15  1  0
 14 16  1  0
 16 17  2  0
 17 18  1  0
  7  2  1  0
 17 10  1  0
M  END
>  <ref_pdb>  (110) 
c0300a

>  <inchikey>  (110) 
PPATYTBZUKHXEW-SSDOTTSWSA-N

>  <original ID>  (110) 
PPATYTBZUKHXEW-SSDOTTSWSA-N

>  <generation_date>  (110) 
None

>  <alias>  (110) 
None

>  <tags>  (110) 
[]

>  <ref_mols>  (110) 
c0398a,c0585a

>  <ref_url>  (110) 
None

>  <submitter_name>  (110) 
None

>  <exports>  (110) 
nan

>  <original SMILES>  (110) 
C[C@@H]1CNCCN1C(=O)c1cc(F)c(F)cc1O

>  <method>  (110) 
None

>  <submitter_email>  (110) 
None

>  <HIPPO ID>  (110) 
79080

$$$$
PPATYTBZUKHXEW-ZETCQYMHSA-N
     RDKit          3D

 18 19  0  0  0  0  0  0  0  0999 V2000
   15.5672    2.6618   14.3828 C   0  0  0  0  0  0  0  0  0  0  0  0
   16.8678    2.3637   15.1125 C   0  0  1  0  0  0  0  0  0  0  0  0
   17.6960    3.6679   15.1283 C   0  0  0  0  0  0  0  0  0  0  0  0
   19.0073    3.5335   15.7720 N   0  0  0  0  0  0  0  0  0  0  0  0
   18.9639    2.6093   16.9188 C   0  0  0  0  0  0  0  0  0  0  0  0
   17.5583    2.3611   17.4964 C   0  0  0  0  0  0  0  0  0  0  0  0
   16.6599    1.8153   16.4767 N   0  0  0  0  0  0  0  0  0  0  0  0
   16.0656    0.5591   16.5983 C   0  0  0  0  0  0  0  0  0  0  0  0
   15.6871   -0.1210   15.6496 O   0  0  0  0  0  0  0  0  0  0  0  0
   16.0175   -0.1432   17.8883 C   0  0  0  0  0  0  0  0  0  0  0  0
   15.2444    0.3241   18.9462 C   0  0  0  0  0  0  0  0  0  0  0  0
   15.2297   -0.4191   20.1212 C   0  0  0  0  0  0  0  0  0  0  0  0
   14.4903    0.0020   21.1569 F   0  0  0  0  0  0  0  0  0  0  0  0
   15.9761   -1.5931   20.2422 C   0  0  0  0  0  0  0  0  0  0  0  0
   15.9790   -2.2671   21.3980 F   0  0  0  0  0  0  0  0  0  0  0  0
   16.7207   -2.0801   19.1809 C   0  0  0  0  0  0  0  0  0  0  0  0
   16.7149   -1.3618   17.9979 C   0  0  0  0  0  0  0  0  0  0  0  0
   17.3851   -1.8988   16.9323 O   0  0  0  0  0  0  0  0  0  0  0  0
  2  1  1  1
  2  3  1  0
  3  4  1  0
  4  5  1  0
  5  6  1  0
  6  7  1  0
  7  8  1  0
  8  9  2  0
  8 10  1  0
 10 11  2  0
 11 12  1  0
 12 13  1  0
 12 14  2  0
 14 15  1  0
 14 16  1  0
 16 17  2  0
 17 18  1  0
  7  2  1  0
 17 10  1  0
M  END
>  <ref_pdb>  (111) 
c0300a

>  <inchikey>  (111) 
PPATYTBZUKHXEW-ZETCQYMHSA-N

>  <original ID>  (111) 
PPATYTBZUKHXEW-ZETCQYMHSA-N

>  <generation_date>  (111) 
None

>  <alias>  (111) 
None

>  <tags>  (111) 
[]

>  <ref_mols>  (111) 
c0398a,c0585a

>  <ref_url>  (111) 
None

>  <submitter_name>  (111) 
None

>  <exports>  (111) 
nan

>  <original SMILES>  (111) 
C[C@H]1CNCCN1C(=O)c1cc(F)c(F)cc1O

>  <method>  (111) 
None

>  <submitter_email>  (111) 
None

>  <HIPPO ID>  (111) 
79081

$$$$
FRQZSTLBLSDMFL-SNVBAGLBSA-N
     RDKit          3D

 18 19  0  0  0  0  0  0  0  0999 V2000
   19.2360    1.3655   15.4538 C   0  0  0  0  0  0  0  0  0  0  0  0
   18.9831    2.5534   16.3875 C   0  0  2  0  0  0  0  0  0  0  0  0
   17.7910    2.3040   17.3375 C   0  0  0  0  0  0  0  0  0  0  0  0
   16.5356    2.1643   16.5884 N   0  0  0  0  0  0  0  0  0  0  0  0
   16.0522    0.8622   16.4372 C   0  0  0  0  0  0  0  0  0  0  0  0
   15.6959    0.3661   15.3812 O   0  0  0  0  0  0  0  0  0  0  0  0
   16.0277   -0.0195   17.6296 C   0  0  0  0  0  0  0  0  0  0  0  0
   16.7264   -1.2345   17.5863 C   0  0  0  0  0  0  0  0  0  0  0  0
   16.7274   -2.0793   18.6963 C   0  0  0  0  0  0  0  0  0  0  0  0
   16.0144   -1.7165   19.8374 C   0  0  0  0  0  0  0  0  0  0  0  0
   15.2972   -0.5217   19.8554 C   0  0  0  0  0  0  0  0  0  0  0  0
   14.6032   -0.1955   20.9553 F   0  0  0  0  0  0  0  0  0  0  0  0
   15.2979    0.3385   18.7633 C   0  0  0  0  0  0  0  0  0  0  0  0
   16.2911    3.2809   15.5998 C   0  0  0  0  0  0  0  0  0  0  0  0
   15.2499    3.0208   14.5094 C   0  0  0  0  0  0  0  0  0  0  0  0
   15.8023    4.4987   16.4174 C   0  0  0  0  0  0  0  0  0  0  0  0
   17.5734    3.6892   14.8099 C   0  0  0  0  0  0  0  0  0  0  0  0
   18.7736    3.8044   15.6401 N   0  0  0  0  0  0  0  0  0  0  0  0
  2  1  1  6
  2  3  1  0
  3  4  1  0
  4  5  1  0
  5  6  2  0
  5  7  1  0
  7  8  2  0
  8  9  1  0
  9 10  2  0
 10 11  1  0
 11 12  1  0
 11 13  2  0
  4 14  1  0
 14 15  1  0
 14 16  1  0
 14 17  1  0
 17 18  1  0
 18  2  1  0
 13  7  1  0
M  END
>  <ref_pdb>  (112) 
c0300a

>  <inchikey>  (112) 
FRQZSTLBLSDMFL-SNVBAGLBSA-N

>  <original ID>  (112) 
FRQZSTLBLSDMFL-SNVBAGLBSA-N

>  <generation_date>  (112) 
None

>  <alias>  (112) 
None

>  <tags>  (112) 
[]

>  <ref_mols>  (112) 
c0398a,c0585a

>  <ref_url>  (112) 
None

>  <submitter_name>  (112) 
None

>  <exports>  (112) 
nan

>  <original SMILES>  (112) 
C[C@@H]1CN(C(=O)c2cccc(F)c2)C(C)(C)CN1

>  <method>  (112) 
None

>  <submitter_email>  (112) 
None

>  <HIPPO ID>  (112) 
79153

$$$$
FRQZSTLBLSDMFL-JTQLQIEISA-N
     RDKit          3D

 18 19  0  0  0  0  0  0  0  0999 V2000
   20.3660    1.5490   15.9250 C   0  0  0  0  0  0  0  0  0  0  0  0
   18.9265    1.9011   15.6329 C   0  0  1  0  0  0  0  0  0  0  0  0
   18.0529    1.9222   16.9042 C   0  0  0  0  0  0  0  0  0  0  0  0
   16.6459    1.9635   16.4814 N   0  0  0  0  0  0  0  0  0  0  0  0
   16.0165    0.7076   16.4879 C   0  0  0  0  0  0  0  0  0  0  0  0
   15.5751    0.1372   15.5027 O   0  0  0  0  0  0  0  0  0  0  0  0
   16.0251   -0.0804   17.7391 C   0  0  0  0  0  0  0  0  0  0  0  0
   16.6904   -1.3171   17.7419 C   0  0  0  0  0  0  0  0  0  0  0  0
   16.6925   -2.1077   18.8893 C   0  0  0  0  0  0  0  0  0  0  0  0
   16.0051   -1.6730   20.0193 C   0  0  0  0  0  0  0  0  0  0  0  0
   15.3144   -0.4619   19.9889 C   0  0  0  0  0  0  0  0  0  0  0  0
   14.6248   -0.0831   21.0743 F   0  0  0  0  0  0  0  0  0  0  0  0
   15.3236    0.3518   18.8613 C   0  0  0  0  0  0  0  0  0  0  0  0
   16.3804    2.9964   15.3993 C   0  0  0  0  0  0  0  0  0  0  0  0
   15.2168    3.9023   15.8002 C   0  0  0  0  0  0  0  0  0  0  0  0
   16.0587    2.4311   14.0111 C   0  0  0  0  0  0  0  0  0  0  0  0
   17.6359    3.9136   15.2101 C   0  0  0  0  0  0  0  0  0  0  0  0
   18.8637    3.1706   14.8735 N   0  0  0  0  0  0  0  0  0  0  0  0
  2  1  1  1
  2  3  1  0
  3  4  1  0
  4  5  1  0
  5  6  2  0
  5  7  1  0
  7  8  2  0
  8  9  1  0
  9 10  2  0
 10 11  1  0
 11 12  1  0
 11 13  2  0
  4 14  1  0
 14 15  1  0
 14 16  1  0
 14 17  1  0
 17 18  1  0
 18  2  1  0
 13  7  1  0
M  END
>  <ref_pdb>  (113) 
c0300a

>  <inchikey>  (113) 
FRQZSTLBLSDMFL-JTQLQIEISA-N

>  <original ID>  (113) 
FRQZSTLBLSDMFL-JTQLQIEISA-N

>  <generation_date>  (113) 
None

>  <alias>  (113) 
None

>  <tags>  (113) 
[]

>  <ref_mols>  (113) 
c0398a,c0585a

>  <ref_url>  (113) 
None

>  <submitter_name>  (113) 
None

>  <exports>  (113) 
nan

>  <original SMILES>  (113) 
C[C@H]1CN(C(=O)c2cccc(F)c2)C(C)(C)CN1

>  <method>  (113) 
None

>  <submitter_email>  (113) 
None

>  <HIPPO ID>  (113) 
79154

$$$$
BGKDZCHNYRSKOP-SNVBAGLBSA-N
     RDKit          3D

 18 19  0  0  0  0  0  0  0  0999 V2000
   16.0401    2.3752   14.1406 C   0  0  0  0  0  0  0  0  0  0  0  0
   16.1329    2.7617   15.6093 C   0  0  2  0  0  0  0  0  0  0  0  0
   16.9458    4.0720   15.7277 C   0  0  0  0  0  0  0  0  0  0  0  0
   18.3782    3.8678   15.4586 N   0  0  0  0  0  0  0  0  0  0  0  0
   18.9273    2.7646   16.3002 C   0  0  0  0  0  0  0  0  0  0  0  0
   20.0264    3.3836   17.1647 C   0  0  0  0  0  0  0  0  0  0  0  0
   19.5557    1.7042   15.3826 C   0  0  0  0  0  0  0  0  0  0  0  0
   17.8857    2.0612   17.2311 C   0  0  0  0  0  0  0  0  0  0  0  0
   16.6685    1.7153   16.4999 N   0  0  0  0  0  0  0  0  0  0  0  0
   16.0943    0.4532   16.5682 C   0  0  0  0  0  0  0  0  0  0  0  0
   15.5165   -0.1139   15.6531 O   0  0  0  0  0  0  0  0  0  0  0  0
   16.1885   -0.2979   17.8274 C   0  0  0  0  0  0  0  0  0  0  0  0
   16.9108   -1.4962   17.8576 C   0  0  0  0  0  0  0  0  0  0  0  0
   16.9246   -2.2620   19.0219 C   0  0  0  0  0  0  0  0  0  0  0  0
   16.2022   -1.8350   20.1363 C   0  0  0  0  0  0  0  0  0  0  0  0
   15.4629   -0.6550   20.0757 C   0  0  0  0  0  0  0  0  0  0  0  0
   14.7494   -0.2716   21.1434 F   0  0  0  0  0  0  0  0  0  0  0  0
   15.4474    0.1256   18.9298 C   0  0  0  0  0  0  0  0  0  0  0  0
  2  1  1  6
  2  3  1  0
  3  4  1  0
  4  5  1  0
  5  6  1  0
  5  7  1  0
  5  8  1  0
  8  9  1  0
  9 10  1  0
 10 11  2  0
 10 12  1  0
 12 13  2  0
 13 14  1  0
 14 15  2  0
 15 16  1  0
 16 17  1  0
 16 18  2  0
  9  2  1  0
 18 12  1  0
M  END
>  <ref_pdb>  (114) 
c0300a

>  <inchikey>  (114) 
BGKDZCHNYRSKOP-SNVBAGLBSA-N

>  <original ID>  (114) 
BGKDZCHNYRSKOP-SNVBAGLBSA-N

>  <generation_date>  (114) 
None

>  <alias>  (114) 
None

>  <tags>  (114) 
[]

>  <ref_mols>  (114) 
c0398a,c0585a

>  <ref_url>  (114) 
None

>  <submitter_name>  (114) 
None

>  <exports>  (114) 
nan

>  <original SMILES>  (114) 
C[C@@H]1CNC(C)(C)CN1C(=O)c1cccc(F)c1

>  <method>  (114) 
None

>  <submitter_email>  (114) 
None

>  <HIPPO ID>  (114) 
79155

$$$$
BGKDZCHNYRSKOP-SNVBAGLBSA-N
     RDKit          3D

 18 19  0  0  0  0  0  0  0  0999 V2000
   15.6408    2.3776   14.1400 C   0  0  0  0  0  0  0  0  0  0  0  0
   16.1963    2.7307   15.5139 C   0  0  2  0  0  0  0  0  0  0  0  0
   17.1584    3.9420   15.2449 C   0  0  0  0  0  0  0  0  0  0  0  0
   18.4517    3.9843   15.9198 N   0  0  0  0  0  0  0  0  0  0  0  0
   18.9866    2.6378   16.1658 C   0  0  0  0  0  0  0  0  0  0  0  0
   19.2696    1.8500   14.8798 C   0  0  0  0  0  0  0  0  0  0  0  0
   20.3065    2.8066   16.9152 C   0  0  0  0  0  0  0  0  0  0  0  0
   17.9782    1.8729   17.0455 C   0  0  0  0  0  0  0  0  0  0  0  0
   16.7607    1.6014   16.2965 N   0  0  0  0  0  0  0  0  0  0  0  0
   16.0800    0.3983   16.4667 C   0  0  0  0  0  0  0  0  0  0  0  0
   15.4366   -0.1830   15.6055 O   0  0  0  0  0  0  0  0  0  0  0  0
   16.1766   -0.3100   17.7523 C   0  0  0  0  0  0  0  0  0  0  0  0
   16.9204   -1.4942   17.8247 C   0  0  0  0  0  0  0  0  0  0  0  0
   16.9305   -2.2313   19.0076 C   0  0  0  0  0  0  0  0  0  0  0  0
   16.1825   -1.7914   20.0995 C   0  0  0  0  0  0  0  0  0  0  0  0
   15.4223   -0.6272   19.9982 C   0  0  0  0  0  0  0  0  0  0  0  0
   14.6858   -0.2344   21.0471 F   0  0  0  0  0  0  0  0  0  0  0  0
   15.4093    0.1250   18.8321 C   0  0  0  0  0  0  0  0  0  0  0  0
  2  1  1  6
  2  3  1  0
  3  4  1  0
  4  5  1  0
  5  6  1  0
  5  7  1  0
  5  8  1  0
  8  9  1  0
  9 10  1  0
 10 11  2  0
 10 12  1  0
 12 13  2  0
 13 14  1  0
 14 15  2  0
 15 16  1  0
 16 17  1  0
 16 18  2  0
  9  2  1  0
 18 12  1  0
M  END
>  <ref_pdb>  (115) 
c0300a

>  <inchikey>  (115) 
BGKDZCHNYRSKOP-SNVBAGLBSA-N

>  <original ID>  (115) 
BGKDZCHNYRSKOP-SNVBAGLBSA-N

>  <generation_date>  (115) 
None

>  <alias>  (115) 
None

>  <tags>  (115) 
[]

>  <ref_mols>  (115) 
c0398a,c0585a

>  <ref_url>  (115) 
None

>  <submitter_name>  (115) 
None

>  <exports>  (115) 
nan

>  <original SMILES>  (115) 
C[C@@H]1CNC(C)(C)CN1C(=O)c1cccc(F)c1

>  <method>  (115) 
None

>  <submitter_email>  (115) 
None

>  <HIPPO ID>  (115) 
79156

$$$$
IQVGZTGBBFKEBS-MRVPVSSYSA-N
     RDKit          3D

 19 20  0  0  0  0  0  0  0  0999 V2000
   15.8704    0.3538   15.5065 C   0  0  0  0  0  0  0  0  0  0  0  0
   16.1698    1.7286   14.9383 C   0  0  0  0  0  0  0  0  0  0  0  0
   17.6076    2.2570   15.1307 C   0  0  2  0  0  0  0  0  0  0  0  0
   18.2830    1.8406   16.4569 C   0  0  0  0  0  0  0  0  0  0  0  0
   17.5526    2.3640   17.6022 N   0  0  0  0  0  0  0  0  0  0  0  0
   16.3610    1.7274   17.9766 C   0  0  0  0  0  0  0  0  0  0  0  0
   15.2702    2.2922   17.8485 O   0  0  0  0  0  0  0  0  0  0  0  0
   16.3909    0.4640   18.7839 C   0  0  0  0  0  0  0  0  0  0  0  0
   15.5537    0.5634   19.9068 C   0  0  0  0  0  0  0  0  0  0  0  0
   15.4648   -0.4739   20.8115 C   0  0  0  0  0  0  0  0  0  0  0  0
   14.7075   -0.3123   21.9015 F   0  0  0  0  0  0  0  0  0  0  0  0
   16.1789   -1.6401   20.6115 C   0  0  0  0  0  0  0  0  0  0  0  0
   16.1551   -2.6109   21.5268 F   0  0  0  0  0  0  0  0  0  0  0  0
   16.9593   -1.8037   19.4820 C   0  0  0  0  0  0  0  0  0  0  0  0
   17.0682   -0.7547   18.5627 C   0  0  0  0  0  0  0  0  0  0  0  0
   17.8287   -1.0177   17.4601 O   0  0  0  0  0  0  0  0  0  0  0  0
   17.4733    3.8281   17.5224 C   0  0  0  0  0  0  0  0  0  0  0  0
   16.9822    4.3680   16.1556 C   0  0  0  0  0  0  0  0  0  0  0  0
   17.6346    3.7421   14.9823 N   0  0  0  0  0  0  0  0  0  0  0  0
  1  2  1  0
  3  2  1  1
  3  4  1  0
  4  5  1  0
  5  6  1  0
  6  7  2  0
  6  8  1  0
  8  9  2  0
  9 10  1  0
 10 11  1  0
 10 12  2  0
 12 13  1  0
 12 14  1  0
 14 15  2  0
 15 16  1  0
  5 17  1  0
 17 18  1  0
 18 19  1  0
 19  3  1  0
 15  8  1  0
M  END
>  <ref_pdb>  (116) 
c0300a

>  <inchikey>  (116) 
IQVGZTGBBFKEBS-MRVPVSSYSA-N

>  <original ID>  (116) 
IQVGZTGBBFKEBS-MRVPVSSYSA-N

>  <generation_date>  (116) 
None

>  <alias>  (116) 
None

>  <tags>  (116) 
[]

>  <ref_mols>  (116) 
c0398a,c0585a

>  <ref_url>  (116) 
None

>  <submitter_name>  (116) 
None

>  <exports>  (116) 
nan

>  <original SMILES>  (116) 
CC[C@@H]1CN(C(=O)c2cc(F)c(F)cc2O)CCN1

>  <method>  (116) 
None

>  <submitter_email>  (116) 
None

>  <HIPPO ID>  (116) 
79774

$$$$
IQVGZTGBBFKEBS-MRVPVSSYSA-N
     RDKit          3D

 19 20  0  0  0  0  0  0  0  0999 V2000
   17.0139    1.8962   14.5496 C   0  0  0  0  0  0  0  0  0  0  0  0
   18.4795    2.0771   14.9077 C   0  0  0  0  0  0  0  0  0  0  0  0
   18.8014    2.6738   16.2766 C   0  0  2  0  0  0  0  0  0  0  0  0
   18.0521    1.9455   17.4109 C   0  0  0  0  0  0  0  0  0  0  0  0
   16.6337    2.2701   17.3832 N   0  0  0  0  0  0  0  0  0  0  0  0
   15.6093    1.4295   17.7942 C   0  0  0  0  0  0  0  0  0  0  0  0
   14.4417    1.7991   17.8193 O   0  0  0  0  0  0  0  0  0  0  0  0
   15.8820    0.1564   18.4708 C   0  0  0  0  0  0  0  0  0  0  0  0
   15.4749    0.1501   19.8074 C   0  0  0  0  0  0  0  0  0  0  0  0
   15.7070   -0.9650   20.5833 C   0  0  0  0  0  0  0  0  0  0  0  0
   15.3185   -0.9411   21.8627 F   0  0  0  0  0  0  0  0  0  0  0  0
   16.3451   -2.0741   20.0475 C   0  0  0  0  0  0  0  0  0  0  0  0
   16.6149   -3.1278   20.8236 F   0  0  0  0  0  0  0  0  0  0  0  0
   16.7175   -2.0994   18.7095 C   0  0  0  0  0  0  0  0  0  0  0  0
   16.4538   -0.9896   17.9124 C   0  0  0  0  0  0  0  0  0  0  0  0
   16.7543   -1.1061   16.5898 O   0  0  0  0  0  0  0  0  0  0  0  0
   16.3267    3.7042   17.3192 C   0  0  0  0  0  0  0  0  0  0  0  0
   17.2101    4.5342   16.3664 C   0  0  0  0  0  0  0  0  0  0  0  0
   18.6237    4.1431   16.3063 N   0  0  0  0  0  0  0  0  0  0  0  0
  1  2  1  0
  3  2  1  6
  3  4  1  0
  4  5  1  0
  5  6  1  0
  6  7  2  0
  6  8  1  0
  8  9  2  0
  9 10  1  0
 10 11  1  0
 10 12  2  0
 12 13  1  0
 12 14  1  0
 14 15  2  0
 15 16  1  0
  5 17  1  0
 17 18  1  0
 18 19  1  0
 19  3  1  0
 15  8  1  0
M  END
>  <ref_pdb>  (117) 
c0300a

>  <inchikey>  (117) 
IQVGZTGBBFKEBS-MRVPVSSYSA-N

>  <original ID>  (117) 
IQVGZTGBBFKEBS-MRVPVSSYSA-N

>  <generation_date>  (117) 
None

>  <alias>  (117) 
None

>  <tags>  (117) 
[]

>  <ref_mols>  (117) 
c0398a,c0585a

>  <ref_url>  (117) 
None

>  <submitter_name>  (117) 
None

>  <exports>  (117) 
nan

>  <original SMILES>  (117) 
CC[C@@H]1CN(C(=O)c2cc(F)c(F)cc2O)CCN1

>  <method>  (117) 
None

>  <submitter_email>  (117) 
None

>  <HIPPO ID>  (117) 
79775

$$$$
TZHLSDJFAJWYMI-SECBINFHSA-N
     RDKit          3D

 19 20  0  0  0  0  0  0  0  0999 V2000
   16.0224    2.3978   14.1031 C   0  0  0  0  0  0  0  0  0  0  0  0
   16.1648    2.7258   15.5806 C   0  0  2  0  0  0  0  0  0  0  0  0
   16.9660    4.0422   15.7260 C   0  0  0  0  0  0  0  0  0  0  0  0
   18.3992    3.8665   15.4395 N   0  0  0  0  0  0  0  0  0  0  0  0
   18.9659    2.7401   16.2395 C   0  0  0  0  0  0  0  0  0  0  0  0
   19.5667    1.7064   15.2757 C   0  0  0  0  0  0  0  0  0  0  0  0
   20.0833    3.3244   17.1022 C   0  0  0  0  0  0  0  0  0  0  0  0
   17.9392    2.0043   17.1577 C   0  0  0  0  0  0  0  0  0  0  0  0
   16.7476    1.6455   16.3957 N   0  0  0  0  0  0  0  0  0  0  0  0
   16.1195    0.4145   16.5102 C   0  0  0  0  0  0  0  0  0  0  0  0
   15.4755   -0.1389   15.6307 O   0  0  0  0  0  0  0  0  0  0  0  0
   16.1745   -0.2920   17.7936 C   0  0  0  0  0  0  0  0  0  0  0  0
   17.0909   -1.3410   17.9475 C   0  0  0  0  0  0  0  0  0  0  0  0
   17.1196   -2.0588   19.1407 C   0  0  0  0  0  0  0  0  0  0  0  0
   16.2494   -1.7113   20.1729 C   0  0  0  0  0  0  0  0  0  0  0  0
   15.3254   -0.6818   19.9881 C   0  0  0  0  0  0  0  0  0  0  0  0
   14.5166   -0.3493   21.0062 F   0  0  0  0  0  0  0  0  0  0  0  0
   15.2077   -0.0085   18.7698 C   0  0  0  0  0  0  0  0  0  0  0  0
   14.2463    1.0284   18.6098 N   0  0  0  0  0  0  0  0  0  0  0  0
  2  1  1  6
  2  3  1  0
  3  4  1  0
  4  5  1  0
  5  6  1  0
  5  7  1  0
  5  8  1  0
  8  9  1  0
  9 10  1  0
 10 11  2  0
 10 12  1  0
 12 13  2  0
 13 14  1  0
 14 15  2  0
 15 16  1  0
 16 17  1  0
 16 18  2  0
 18 19  1  0
  9  2  1  0
 18 12  1  0
M  END
>  <ref_pdb>  (118) 
c0300a

>  <inchikey>  (118) 
TZHLSDJFAJWYMI-SECBINFHSA-N

>  <original ID>  (118) 
TZHLSDJFAJWYMI-SECBINFHSA-N

>  <generation_date>  (118) 
None

>  <alias>  (118) 
None

>  <tags>  (118) 
[]

>  <ref_mols>  (118) 
c0398a,c0585a

>  <ref_url>  (118) 
None

>  <submitter_name>  (118) 
None

>  <exports>  (118) 
nan

>  <original SMILES>  (118) 
C[C@@H]1CNC(C)(C)CN1C(=O)c1cccc(F)c1N

>  <method>  (118) 
None

>  <submitter_email>  (118) 
None

>  <HIPPO ID>  (118) 
81430

$$$$
TZHLSDJFAJWYMI-VIFPVBQESA-N
     RDKit          3D

 19 20  0  0  0  0  0  0  0  0999 V2000
   15.4305    2.5979   14.2711 C   0  0  0  0  0  0  0  0  0  0  0  0
   16.8076    2.4110   14.8829 C   0  0  1  0  0  0  0  0  0  0  0  0
   17.4414    3.8218   14.9190 C   0  0  0  0  0  0  0  0  0  0  0  0
   18.8006    3.8478   15.4474 N   0  0  0  0  0  0  0  0  0  0  0  0
   18.9631    2.9661   16.6225 C   0  0  0  0  0  0  0  0  0  0  0  0
   19.6689    3.7689   17.7200 C   0  0  0  0  0  0  0  0  0  0  0  0
   19.8737    1.8124   16.1764 C   0  0  0  0  0  0  0  0  0  0  0  0
   17.6376    2.4004   17.2214 C   0  0  0  0  0  0  0  0  0  0  0  0
   16.7890    1.7702   16.2188 N   0  0  0  0  0  0  0  0  0  0  0  0
   16.1682    0.5369   16.4147 C   0  0  0  0  0  0  0  0  0  0  0  0
   15.5968   -0.1081   15.5454 O   0  0  0  0  0  0  0  0  0  0  0  0
   16.1922   -0.1199   17.7294 C   0  0  0  0  0  0  0  0  0  0  0  0
   17.1741   -1.1013   17.9410 C   0  0  0  0  0  0  0  0  0  0  0  0
   17.1860   -1.8289   19.1294 C   0  0  0  0  0  0  0  0  0  0  0  0
   16.2345   -1.5564   20.1090 C   0  0  0  0  0  0  0  0  0  0  0  0
   15.2552   -0.5904   19.8752 C   0  0  0  0  0  0  0  0  0  0  0  0
   14.3725   -0.3237   20.8509 F   0  0  0  0  0  0  0  0  0  0  0  0
   15.1589    0.0854   18.6530 C   0  0  0  0  0  0  0  0  0  0  0  0
   14.1427    1.0549   18.4478 N   0  0  0  0  0  0  0  0  0  0  0  0
  2  1  1  1
  2  3  1  0
  3  4  1  0
  4  5  1  0
  5  6  1  0
  5  7  1  0
  5  8  1  0
  8  9  1  0
  9 10  1  0
 10 11  2  0
 10 12  1  0
 12 13  2  0
 13 14  1  0
 14 15  2  0
 15 16  1  0
 16 17  1  0
 16 18  2  0
 18 19  1  0
  9  2  1  0
 18 12  1  0
M  END
>  <ref_pdb>  (119) 
c0300a

>  <inchikey>  (119) 
TZHLSDJFAJWYMI-VIFPVBQESA-N

>  <original ID>  (119) 
TZHLSDJFAJWYMI-VIFPVBQESA-N

>  <generation_date>  (119) 
None

>  <alias>  (119) 
None

>  <tags>  (119) 
[]

>  <ref_mols>  (119) 
c0398a,c0585a

>  <ref_url>  (119) 
None

>  <submitter_name>  (119) 
None

>  <exports>  (119) 
nan

>  <original SMILES>  (119) 
C[C@H]1CNC(C)(C)CN1C(=O)c1cccc(F)c1N

>  <method>  (119) 
None

>  <submitter_email>  (119) 
None

>  <HIPPO ID>  (119) 
81431

$$$$
LWPRTRCETORNDY-SECBINFHSA-N
     RDKit          3D

 19 20  0  0  0  0  0  0  0  0999 V2000
   19.3609    1.4325   15.0820 C   0  0  0  0  0  0  0  0  0  0  0  0
   19.2918    2.6020   16.0420 C   0  0  2  0  0  0  0  0  0  0  0  0
   18.2561    2.3074   17.1380 C   0  0  0  0  0  0  0  0  0  0  0  0
   16.8930    2.3210   16.6166 N   0  0  0  0  0  0  0  0  0  0  0  0
   15.8768    1.5800   17.2111 C   0  0  0  0  0  0  0  0  0  0  0  0
   14.7293    2.0051   17.2176 O   0  0  0  0  0  0  0  0  0  0  0  0
   16.1030    0.3334   17.9801 C   0  0  0  0  0  0  0  0  0  0  0  0
   16.9661   -0.6725   17.5210 C   0  0  0  0  0  0  0  0  0  0  0  0
   17.1665   -1.8297   18.2818 C   0  0  0  0  0  0  0  0  0  0  0  0
   16.5196   -1.9748   19.5068 C   0  0  0  0  0  0  0  0  0  0  0  0
   15.6361   -0.9891   19.9305 C   0  0  0  0  0  0  0  0  0  0  0  0
   15.0686   -1.0960   21.1383 F   0  0  0  0  0  0  0  0  0  0  0  0
   15.3357    0.1234   19.1436 C   0  0  0  0  0  0  0  0  0  0  0  0
   14.4069    1.0873   19.6354 N   0  0  0  0  0  0  0  0  0  0  0  0
   16.5589    3.4612   15.6855 C   0  0  0  0  0  0  0  0  0  0  0  0
   16.1661    2.9023   14.3053 C   0  0  0  0  0  0  0  0  0  0  0  0
   15.4174    4.3770   16.1754 C   0  0  0  0  0  0  0  0  0  0  0  0
   17.7674    4.4324   15.5411 C   0  0  0  0  0  0  0  0  0  0  0  0
   19.0559    3.8181   15.2487 N   0  0  0  0  0  0  0  0  0  0  0  0
  2  1  1  6
  2  3  1  0
  3  4  1  0
  4  5  1  0
  5  6  2  0
  5  7  1  0
  7  8  2  0
  8  9  1  0
  9 10  2  0
 10 11  1  0
 11 12  1  0
 11 13  2  0
 13 14  1  0
  4 15  1  0
 15 16  1  0
 15 17  1  0
 15 18  1  0
 18 19  1  0
 19  2  1  0
 13  7  1  0
M  END
>  <ref_pdb>  (120) 
c0300a

>  <inchikey>  (120) 
LWPRTRCETORNDY-SECBINFHSA-N

>  <original ID>  (120) 
LWPRTRCETORNDY-SECBINFHSA-N

>  <generation_date>  (120) 
None

>  <alias>  (120) 
None

>  <tags>  (120) 
[]

>  <ref_mols>  (120) 
c0398a,c0585a

>  <ref_url>  (120) 
None

>  <submitter_name>  (120) 
None

>  <exports>  (120) 
nan

>  <original SMILES>  (120) 
C[C@@H]1CN(C(=O)c2cccc(F)c2N)C(C)(C)CN1

>  <method>  (120) 
None

>  <submitter_email>  (120) 
None

>  <HIPPO ID>  (120) 
81432

$$$$
LWPRTRCETORNDY-VIFPVBQESA-N
     RDKit          3D

 19 20  0  0  0  0  0  0  0  0999 V2000
   18.4905    4.6516   18.8108 C   0  0  0  0  0  0  0  0  0  0  0  0
   18.2555    3.7473   17.6073 C   0  0  1  0  0  0  0  0  0  0  0  0
   16.9799    2.8800   17.8110 C   0  0  0  0  0  0  0  0  0  0  0  0
   16.6572    2.0616   16.6352 N   0  0  0  0  0  0  0  0  0  0  0  0
   16.2030    0.7385   16.7023 C   0  0  0  0  0  0  0  0  0  0  0  0
   15.9029    0.0421   15.7393 O   0  0  0  0  0  0  0  0  0  0  0  0
   16.1394    0.0314   17.9832 C   0  0  0  0  0  0  0  0  0  0  0  0
   17.1202   -0.9481   18.2153 C   0  0  0  0  0  0  0  0  0  0  0  0
   17.0881   -1.7022   19.3844 C   0  0  0  0  0  0  0  0  0  0  0  0
   16.0994   -1.4465   20.3293 C   0  0  0  0  0  0  0  0  0  0  0  0
   15.1238   -0.4816   20.0700 C   0  0  0  0  0  0  0  0  0  0  0  0
   14.2097   -0.2211   21.0165 F   0  0  0  0  0  0  0  0  0  0  0  0
   15.0643    0.2064   18.8553 C   0  0  0  0  0  0  0  0  0  0  0  0
   14.0461    1.1608   18.6096 N   0  0  0  0  0  0  0  0  0  0  0  0
   17.0085    2.6608   15.3165 C   0  0  0  0  0  0  0  0  0  0  0  0
   18.3000    1.9964   14.8168 C   0  0  0  0  0  0  0  0  0  0  0  0
   15.8735    2.5397   14.2898 C   0  0  0  0  0  0  0  0  0  0  0  0
   17.2378    4.1967   15.4435 C   0  0  0  0  0  0  0  0  0  0  0  0
   18.2834    4.5790   16.3881 N   0  0  0  0  0  0  0  0  0  0  0  0
  2  1  1  1
  2  3  1  0
  3  4  1  0
  4  5  1  0
  5  6  2  0
  5  7  1  0
  7  8  2  0
  8  9  1  0
  9 10  2  0
 10 11  1  0
 11 12  1  0
 11 13  2  0
 13 14  1  0
  4 15  1  0
 15 16  1  0
 15 17  1  0
 15 18  1  0
 18 19  1  0
 19  2  1  0
 13  7  1  0
M  END
>  <ref_pdb>  (121) 
c0300a

>  <inchikey>  (121) 
LWPRTRCETORNDY-VIFPVBQESA-N

>  <original ID>  (121) 
LWPRTRCETORNDY-VIFPVBQESA-N

>  <generation_date>  (121) 
None

>  <alias>  (121) 
None

>  <tags>  (121) 
[]

>  <ref_mols>  (121) 
c0398a,c0585a

>  <ref_url>  (121) 
None

>  <submitter_name>  (121) 
None

>  <exports>  (121) 
nan

>  <original SMILES>  (121) 
C[C@H]1CN(C(=O)c2cccc(F)c2N)C(C)(C)CN1

>  <method>  (121) 
None

>  <submitter_email>  (121) 
None

>  <HIPPO ID>  (121) 
81433

$$$$
BRXDFUQBRMXYHM-UHFFFAOYSA-N
     RDKit          3D

 20 22  0  0  0  0  0  0  0  0999 V2000
   16.9481   12.0800   12.6280 O   0  0  0  0  0  0  0  0  0  0  0  0
   17.5085   11.7626   11.5850 C   0  0  0  0  0  0  0  0  0  0  0  0
   16.9825   10.9518   10.6012 N   0  0  0  0  0  0  0  0  0  0  0  0
   15.9890    9.9755   10.7790 C   0  0  0  0  0  0  0  0  0  0  0  0
   15.4482    9.3961    9.6311 C   0  0  0  0  0  0  0  0  0  0  0  0
   14.5739    8.3186    9.7331 C   0  0  0  0  0  0  0  0  0  0  0  0
   14.2979    7.7652   10.9768 C   0  0  0  0  0  0  0  0  0  0  0  0
   14.8095    8.3590   12.1282 C   0  0  0  0  0  0  0  0  0  0  0  0
   15.6230    9.4869   12.0324 C   0  0  0  0  0  0  0  0  0  0  0  0
   18.8985   12.2447   11.3631 C   0  0  0  0  0  0  0  0  0  0  0  0
   19.3605   13.3506   12.0893 C   0  0  0  0  0  0  0  0  0  0  0  0
   20.7032   13.7246   12.0038 C   0  0  0  0  0  0  0  0  0  0  0  0
   21.3431   15.0473   12.8648 Cl  0  0  0  0  0  0  0  0  0  0  0  0
   21.5959   13.0234   11.1786 C   0  0  0  0  0  0  0  0  0  0  0  0
   22.9220   13.2372   10.8465 N   0  0  0  0  0  0  0  0  0  0  0  0
   23.1826   12.3128    9.9654 C   0  0  0  0  0  0  0  0  0  0  0  0
   24.2923   12.2252    9.2794 O   0  0  0  0  0  0  0  0  0  0  0  0
   22.1597   11.4548    9.7695 N   0  0  0  0  0  0  0  0  0  0  0  0
   21.0993   11.9099   10.5018 C   0  0  0  0  0  0  0  0  0  0  0  0
   19.7740   11.4848   10.5730 C   0  0  0  0  0  0  0  0  0  0  0  0
  1  2  2  0
  2  3  1  0
  3  4  1  0
  4  5  2  0
  5  6  1  0
  6  7  2  0
  7  8  1  0
  8  9  2  0
  2 10  1  0
 10 11  2  0
 11 12  1  0
 12 13  1  0
 12 14  2  0
 14 15  1  0
 15 16  2  0
 16 17  1  0
 16 18  1  0
 18 19  1  0
 19 20  2  0
  9  4  1  0
 20 10  1  0
 19 14  1  0
M  END
>  <ref_pdb>  (122) 
c0270a

>  <inchikey>  (122) 
BRXDFUQBRMXYHM-UHFFFAOYSA-N

>  <original ID>  (122) 
BRXDFUQBRMXYHM-UHFFFAOYSA-N

>  <generation_date>  (122) 
None

>  <alias>  (122) 
None

>  <tags>  (122) 
[]

>  <ref_mols>  (122) 
c0692a,c0894a

>  <ref_url>  (122) 
None

>  <submitter_name>  (122) 
None

>  <exports>  (122) 
nan

>  <original SMILES>  (122) 
O=C(Nc1ccccc1)c1cc(Cl)c2nc(O)[nH]c2c1

>  <method>  (122) 
None

>  <submitter_email>  (122) 
None

>  <HIPPO ID>  (122) 
87743

$$$$
JSDWPAGOCVDNKG-UHFFFAOYSA-N
     RDKit          3D

 22 24  0  0  0  0  0  0  0  0999 V2000
   16.2582   10.2290   13.5109 N   0  0  0  0  0  0  0  0  0  0  0  0
   15.7451    9.7541   12.2927 C   0  0  0  0  0  0  0  0  0  0  0  0
   14.9680    8.5913   12.3365 C   0  0  0  0  0  0  0  0  0  0  0  0
   14.4202    8.0637   11.1761 C   0  0  0  0  0  0  0  0  0  0  0  0
   14.6490    8.7247    9.9842 C   0  0  0  0  0  0  0  0  0  0  0  0
   13.5101    8.4904    8.5460 Br  0  0  0  0  0  0  0  0  0  0  0  0
   15.5928    9.7195    9.8794 C   0  0  0  0  0  0  0  0  0  0  0  0
   16.1716   10.2228   11.0323 C   0  0  0  0  0  0  0  0  0  0  0  0
   17.2072   11.1379   10.7958 N   0  0  0  0  0  0  0  0  0  0  0  0
   17.7256   12.0476   11.6751 C   0  0  0  0  0  0  0  0  0  0  0  0
   17.1198   12.5255   12.6287 O   0  0  0  0  0  0  0  0  0  0  0  0
   19.1364   12.4418   11.4326 C   0  0  0  0  0  0  0  0  0  0  0  0
   19.6331   13.5448   12.1316 C   0  0  0  0  0  0  0  0  0  0  0  0
   20.9784   13.8763   12.0186 C   0  0  0  0  0  0  0  0  0  0  0  0
   21.6612   15.1820   12.8693 Cl  0  0  0  0  0  0  0  0  0  0  0  0
   21.8360   13.1399   11.1881 C   0  0  0  0  0  0  0  0  0  0  0  0
   23.1565   13.3125   10.8482 N   0  0  0  0  0  0  0  0  0  0  0  0
   23.4264   12.3467   10.0115 C   0  0  0  0  0  0  0  0  0  0  0  0
   24.5866   12.2198    9.4087 O   0  0  0  0  0  0  0  0  0  0  0  0
   22.3605   11.5322    9.8004 N   0  0  0  0  0  0  0  0  0  0  0  0
   21.3119   12.0280   10.5326 C   0  0  0  0  0  0  0  0  0  0  0  0
   19.9779   11.6364   10.6401 C   0  0  0  0  0  0  0  0  0  0  0  0
  1  2  1  0
  2  3  2  0
  3  4  1  0
  4  5  2  0
  5  6  1  0
  5  7  1  0
  7  8  2  0
  8  9  1  0
  9 10  1  0
 10 11  2  0
 10 12  1  0
 12 13  2  0
 13 14  1  0
 14 15  1  0
 14 16  2  0
 16 17  1  0
 17 18  2  0
 18 19  1  0
 18 20  1  0
 20 21  1  0
 21 22  2  0
  8  2  1  0
 22 12  1  0
 21 16  1  0
M  END
>  <ref_pdb>  (123) 
c0270a

>  <inchikey>  (123) 
JSDWPAGOCVDNKG-UHFFFAOYSA-N

>  <original ID>  (123) 
JSDWPAGOCVDNKG-UHFFFAOYSA-N

>  <generation_date>  (123) 
None

>  <alias>  (123) 
None

>  <tags>  (123) 
[]

>  <ref_mols>  (123) 
c0692a,c0894a

>  <ref_url>  (123) 
None

>  <submitter_name>  (123) 
None

>  <exports>  (123) 
nan

>  <original SMILES>  (123) 
Nc1ccc(Br)cc1NC(=O)c1cc(Cl)c2nc(O)[nH]c2c1

>  <method>  (123) 
None

>  <submitter_email>  (123) 
None

>  <HIPPO ID>  (123) 
88731

$$$$
GRUOTVMDXQINPQ-UHFFFAOYSA-N
     RDKit          3D

 22 24  0  0  0  0  0  0  0  0999 V2000
   14.2855    7.9502   13.5792 C   0  0  0  0  0  0  0  0  0  0  0  0
   14.7142    8.4397   12.2262 C   0  0  0  0  0  0  0  0  0  0  0  0
   14.3018    7.7697   11.0695 C   0  0  0  0  0  0  0  0  0  0  0  0
   14.6316    8.2699    9.8171 C   0  0  0  0  0  0  0  0  0  0  0  0
   15.4788    9.3664    9.7057 C   0  0  0  0  0  0  0  0  0  0  0  0
   15.9437   10.0245   10.8479 C   0  0  0  0  0  0  0  0  0  0  0  0
   16.9357   11.0002   10.6290 N   0  0  0  0  0  0  0  0  0  0  0  0
   17.4360   11.8935   11.5466 C   0  0  0  0  0  0  0  0  0  0  0  0
   16.8056   12.3370   12.5015 O   0  0  0  0  0  0  0  0  0  0  0  0
   18.8461   12.3082   11.3687 C   0  0  0  0  0  0  0  0  0  0  0  0
   19.3204   13.4228   12.0723 C   0  0  0  0  0  0  0  0  0  0  0  0
   20.6659   13.7741   11.9803 C   0  0  0  0  0  0  0  0  0  0  0  0
   21.3238   15.1114   12.8020 Cl  0  0  0  0  0  0  0  0  0  0  0  0
   21.5397   13.0395   11.1672 C   0  0  0  0  0  0  0  0  0  0  0  0
   22.8438   13.2495   10.7841 N   0  0  0  0  0  0  0  0  0  0  0  0
   23.1040   12.2914    9.9357 C   0  0  0  0  0  0  0  0  0  0  0  0
   24.1701   12.2519    9.1754 O   0  0  0  0  0  0  0  0  0  0  0  0
   22.0923   11.3969    9.8381 N   0  0  0  0  0  0  0  0  0  0  0  0
   21.0374   11.9001   10.5458 C   0  0  0  0  0  0  0  0  0  0  0  0
   19.7106   11.4966   10.6215 C   0  0  0  0  0  0  0  0  0  0  0  0
   15.5070    9.5860   12.1057 C   0  0  0  0  0  0  0  0  0  0  0  0
   15.8566   10.1913   13.2803 O   0  0  0  0  0  0  0  0  0  0  0  0
  1  2  1  0
  2  3  2  0
  3  4  1  0
  4  5  2  0
  5  6  1  0
  6  7  1  0
  7  8  1  0
  8  9  2  0
  8 10  1  0
 10 11  2  0
 11 12  1  0
 12 13  1  0
 12 14  2  0
 14 15  1  0
 15 16  2  0
 16 17  1  0
 16 18  1  0
 18 19  1  0
 19 20  2  0
  6 21  2  0
 21 22  1  0
 21  2  1  0
 20 10  1  0
 19 14  1  0
M  END
>  <ref_pdb>  (124) 
c0270a

>  <inchikey>  (124) 
GRUOTVMDXQINPQ-UHFFFAOYSA-N

>  <original ID>  (124) 
GRUOTVMDXQINPQ-UHFFFAOYSA-N

>  <generation_date>  (124) 
None

>  <alias>  (124) 
None

>  <tags>  (124) 
[]

>  <ref_mols>  (124) 
c0692a,c0894a

>  <ref_url>  (124) 
None

>  <submitter_name>  (124) 
None

>  <exports>  (124) 
nan

>  <original SMILES>  (124) 
Cc1cccc(NC(=O)c2cc(Cl)c3nc(O)[nH]c3c2)c1O

>  <method>  (124) 
None

>  <submitter_email>  (124) 
None

>  <HIPPO ID>  (124) 
90142

$$$$
XCYYSGPMEPNIJG-UHFFFAOYSA-N
     RDKit          3D

 22 24  0  0  0  0  0  0  0  0999 V2000
   16.9147   12.1247   12.5562 O   0  0  0  0  0  0  0  0  0  0  0  0
   17.5272   11.7730   11.5525 C   0  0  0  0  0  0  0  0  0  0  0  0
   17.0234   10.9377   10.5851 N   0  0  0  0  0  0  0  0  0  0  0  0
   15.9852    9.9974   10.7248 C   0  0  0  0  0  0  0  0  0  0  0  0
   15.4638    9.4869    9.5302 C   0  0  0  0  0  0  0  0  0  0  0  0
   14.5242    8.4628    9.5428 C   0  0  0  0  0  0  0  0  0  0  0  0
   14.1802    7.8786   10.7463 C   0  0  0  0  0  0  0  0  0  0  0  0
   13.2487    6.9170   10.7649 F   0  0  0  0  0  0  0  0  0  0  0  0
   14.6914    8.3586   11.9448 C   0  0  0  0  0  0  0  0  0  0  0  0
   15.5367    9.4614   11.9374 C   0  0  0  0  0  0  0  0  0  0  0  0
   15.9021    9.9214   13.1683 O   0  0  0  0  0  0  0  0  0  0  0  0
   18.9178   12.2516   11.3596 C   0  0  0  0  0  0  0  0  0  0  0  0
   19.3417   13.3870   12.0622 C   0  0  0  0  0  0  0  0  0  0  0  0
   20.6620   13.8139   11.9441 C   0  0  0  0  0  0  0  0  0  0  0  0
   21.2580   15.2039   12.7286 Cl  0  0  0  0  0  0  0  0  0  0  0  0
   21.5606   13.1352   11.1097 C   0  0  0  0  0  0  0  0  0  0  0  0
   22.8318   13.4498   10.6898 N   0  0  0  0  0  0  0  0  0  0  0  0
   23.1198   12.5250    9.8178 C   0  0  0  0  0  0  0  0  0  0  0  0
   24.1235   12.5797    8.9805 O   0  0  0  0  0  0  0  0  0  0  0  0
   22.2000   11.5350    9.7670 N   0  0  0  0  0  0  0  0  0  0  0  0
   21.1209   11.9638   10.4946 C   0  0  0  0  0  0  0  0  0  0  0  0
   19.8159   11.4883   10.5957 C   0  0  0  0  0  0  0  0  0  0  0  0
  1  2  2  0
  2  3  1  0
  3  4  1  0
  4  5  2  0
  5  6  1  0
  6  7  2  0
  7  8  1  0
  7  9  1  0
  9 10  2  0
 10 11  1  0
  2 12  1  0
 12 13  2  0
 13 14  1  0
 14 15  1  0
 14 16  2  0
 16 17  1  0
 17 18  2  0
 18 19  1  0
 18 20  1  0
 20 21  1  0
 21 22  2  0
 10  4  1  0
 22 12  1  0
 21 16  1  0
M  END
>  <ref_pdb>  (125) 
c0270a

>  <inchikey>  (125) 
XCYYSGPMEPNIJG-UHFFFAOYSA-N

>  <original ID>  (125) 
XCYYSGPMEPNIJG-UHFFFAOYSA-N

>  <generation_date>  (125) 
None

>  <alias>  (125) 
None

>  <tags>  (125) 
[]

>  <ref_mols>  (125) 
c0692a,c0894a

>  <ref_url>  (125) 
None

>  <submitter_name>  (125) 
None

>  <exports>  (125) 
nan

>  <original SMILES>  (125) 
O=C(Nc1ccc(F)cc1O)c1cc(Cl)c2nc(O)[nH]c2c1

>  <method>  (125) 
None

>  <submitter_email>  (125) 
None

>  <HIPPO ID>  (125) 
90207

$$$$
IHKUOCWEIJSBER-UHFFFAOYSA-N
     RDKit          3D

 22 24  0  0  0  0  0  0  0  0999 V2000
   15.7310    9.9472   13.3601 C   0  0  0  0  0  0  0  0  0  0  0  0
   15.4371    9.4368   11.9818 C   0  0  0  0  0  0  0  0  0  0  0  0
   14.6145    8.3008   11.8970 C   0  0  0  0  0  0  0  0  0  0  0  0
   14.1394    7.8468   10.6721 C   0  0  0  0  0  0  0  0  0  0  0  0
   13.2211    6.8733   10.6459 F   0  0  0  0  0  0  0  0  0  0  0  0
   14.4947    8.4780    9.5025 C   0  0  0  0  0  0  0  0  0  0  0  0
   15.4067    9.5222    9.5565 C   0  0  0  0  0  0  0  0  0  0  0  0
   15.8847   10.0156   10.7835 C   0  0  0  0  0  0  0  0  0  0  0  0
   16.8884   10.9903   10.6584 N   0  0  0  0  0  0  0  0  0  0  0  0
   17.3549   11.8917   11.5872 C   0  0  0  0  0  0  0  0  0  0  0  0
   16.7170   12.3827   12.5075 O   0  0  0  0  0  0  0  0  0  0  0  0
   18.7746   12.2987   11.4161 C   0  0  0  0  0  0  0  0  0  0  0  0
   19.2660   13.4157   12.1061 C   0  0  0  0  0  0  0  0  0  0  0  0
   20.6140   13.7633   11.9918 C   0  0  0  0  0  0  0  0  0  0  0  0
   21.2890   15.1089   12.7855 Cl  0  0  0  0  0  0  0  0  0  0  0  0
   21.4744   13.0251   11.1661 C   0  0  0  0  0  0  0  0  0  0  0  0
   22.7716   13.2379   10.7376 N   0  0  0  0  0  0  0  0  0  0  0  0
   22.9733   12.2840    9.8727 C   0  0  0  0  0  0  0  0  0  0  0  0
   23.9506   12.2422    9.0103 O   0  0  0  0  0  0  0  0  0  0  0  0
   21.9880   11.3659    9.8455 N   0  0  0  0  0  0  0  0  0  0  0  0
   20.9535   11.8798   10.5682 C   0  0  0  0  0  0  0  0  0  0  0  0
   19.6295   11.4798   10.6669 C   0  0  0  0  0  0  0  0  0  0  0  0
  1  2  1  0
  2  3  2  0
  3  4  1  0
  4  5  1  0
  4  6  2  0
  6  7  1  0
  7  8  2  0
  8  9  1  0
  9 10  1  0
 10 11  2  0
 10 12  1  0
 12 13  2  0
 13 14  1  0
 14 15  1  0
 14 16  2  0
 16 17  1  0
 17 18  2  0
 18 19  1  0
 18 20  1  0
 20 21  1  0
 21 22  2  0
  8  2  1  0
 22 12  1  0
 21 16  1  0
M  END
>  <ref_pdb>  (126) 
c0270a

>  <inchikey>  (126) 
IHKUOCWEIJSBER-UHFFFAOYSA-N

>  <original ID>  (126) 
IHKUOCWEIJSBER-UHFFFAOYSA-N

>  <generation_date>  (126) 
None

>  <alias>  (126) 
None

>  <tags>  (126) 
[]

>  <ref_mols>  (126) 
c0692a,c0894a

>  <ref_url>  (126) 
None

>  <submitter_name>  (126) 
None

>  <exports>  (126) 
nan

>  <original SMILES>  (126) 
Cc1cc(F)ccc1NC(=O)c1cc(Cl)c2nc(O)[nH]c2c1

>  <method>  (126) 
None

>  <submitter_email>  (126) 
None

>  <HIPPO ID>  (126) 
90327

$$$$
HCUBNQQMTMYTME-UHFFFAOYSA-N
     RDKit          3D

 23 25  0  0  0  0  0  0  0  0999 V2000
   23.7787   13.6999   11.0997 C   0  0  0  0  0  0  0  0  0  0  0  0
   22.7566   12.7346   10.9015 N   0  0  0  0  0  0  0  0  0  0  0  0
   22.8766   11.8019    9.8559 C   0  0  0  0  0  0  0  0  0  0  0  0
   23.7608   11.7218    9.0316 O   0  0  0  0  0  0  0  0  0  0  0  0
   21.7100   11.0640    9.8481 N   0  0  0  0  0  0  0  0  0  0  0  0
   20.7989   11.6971   10.6541 C   0  0  0  0  0  0  0  0  0  0  0  0
   19.4674   11.4181   10.6889 C   0  0  0  0  0  0  0  0  0  0  0  0
   18.6786   12.2739   11.4430 C   0  0  0  0  0  0  0  0  0  0  0  0
   17.2590   11.9092   11.6277 C   0  0  0  0  0  0  0  0  0  0  0  0
   16.6786   12.3001   12.6333 O   0  0  0  0  0  0  0  0  0  0  0  0
   16.7255   11.1173   10.6375 N   0  0  0  0  0  0  0  0  0  0  0  0
   15.7530   10.1092   10.7579 C   0  0  0  0  0  0  0  0  0  0  0  0
   15.2041    9.6771    9.5472 C   0  0  0  0  0  0  0  0  0  0  0  0
   14.3710    8.5769    9.5200 C   0  0  0  0  0  0  0  0  0  0  0  0
   13.7056    8.2879    8.3992 F   0  0  0  0  0  0  0  0  0  0  0  0
   14.1933    7.8021   10.6505 C   0  0  0  0  0  0  0  0  0  0  0  0
   14.7164    8.2455   11.8669 C   0  0  0  0  0  0  0  0  0  0  0  0
   15.3985    9.4674   11.9592 C   0  0  0  0  0  0  0  0  0  0  0  0
   15.9031    9.8471   13.2157 N   0  0  0  0  0  0  0  0  0  0  0  0
   19.2540   13.3606   12.1429 C   0  0  0  0  0  0  0  0  0  0  0  0
   20.6370   13.6136   12.0735 C   0  0  0  0  0  0  0  0  0  0  0  0
   21.2616   14.9853   12.8916 Cl  0  0  0  0  0  0  0  0  0  0  0  0
   21.4106   12.7643   11.3085 C   0  0  0  0  0  0  0  0  0  0  0  0
  1  2  1  0
  2  3  1  0
  3  4  2  0
  3  5  1  0
  5  6  1  0
  6  7  2  0
  7  8  1  0
  8  9  1  0
  9 10  2  0
  9 11  1  0
 11 12  1  0
 12 13  2  0
 13 14  1  0
 14 15  1  0
 14 16  2  0
 16 17  1  0
 17 18  2  0
 18 19  1  0
  8 20  2  0
 20 21  1  0
 21 22  1  0
 21 23  2  0
 23  2  1  0
 23  6  1  0
 18 12  1  0
M  END
>  <ref_pdb>  (127) 
c0270a

>  <inchikey>  (127) 
HCUBNQQMTMYTME-UHFFFAOYSA-N

>  <original ID>  (127) 
HCUBNQQMTMYTME-UHFFFAOYSA-N

>  <generation_date>  (127) 
None

>  <alias>  (127) 
None

>  <tags>  (127) 
[]

>  <ref_mols>  (127) 
c0692a,c0894a

>  <ref_url>  (127) 
None

>  <submitter_name>  (127) 
None

>  <exports>  (127) 
nan

>  <original SMILES>  (127) 
Cn1c(=O)[nH]c2cc(C(=O)Nc3cc(F)ccc3N)cc(Cl)c21

>  <method>  (127) 
None

>  <submitter_email>  (127) 
None

>  <HIPPO ID>  (127) 
90642

$$$$
KCPNXXBXGCTVPD-UHFFFAOYSA-N
     RDKit          3D

 23 25  0  0  0  0  0  0  0  0999 V2000
   23.9597   13.7011   11.7211 C   0  0  0  0  0  0  0  0  0  0  0  0
   22.9321   13.0085   11.0171 N   0  0  0  0  0  0  0  0  0  0  0  0
   23.2104   12.1374    9.9532 C   0  0  0  0  0  0  0  0  0  0  0  0
   24.2358   12.0505    9.3111 O   0  0  0  0  0  0  0  0  0  0  0  0
   22.0586   11.4027    9.7344 N   0  0  0  0  0  0  0  0  0  0  0  0
   21.0566   11.8778   10.5550 C   0  0  0  0  0  0  0  0  0  0  0  0
   19.7417   11.4935   10.5588 C   0  0  0  0  0  0  0  0  0  0  0  0
   18.8774   12.2267   11.3693 C   0  0  0  0  0  0  0  0  0  0  0  0
   17.4618   11.8095   11.5276 C   0  0  0  0  0  0  0  0  0  0  0  0
   16.8326   12.2440   12.4878 O   0  0  0  0  0  0  0  0  0  0  0  0
   16.9729   10.9398   10.5829 N   0  0  0  0  0  0  0  0  0  0  0  0
   15.9369    9.9960   10.7330 C   0  0  0  0  0  0  0  0  0  0  0  0
   15.4168    9.4962    9.5296 C   0  0  0  0  0  0  0  0  0  0  0  0
   14.4857    8.4684    9.5272 C   0  0  0  0  0  0  0  0  0  0  0  0
   14.1617    7.8639   10.7228 C   0  0  0  0  0  0  0  0  0  0  0  0
   13.2477    6.8856   10.7378 F   0  0  0  0  0  0  0  0  0  0  0  0
   14.6784    8.3323   11.9267 C   0  0  0  0  0  0  0  0  0  0  0  0
   15.4824    9.4753   11.9617 C   0  0  0  0  0  0  0  0  0  0  0  0
   15.9836    9.8800   13.2151 N   0  0  0  0  0  0  0  0  0  0  0  0
   19.3720   13.2798   12.1767 C   0  0  0  0  0  0  0  0  0  0  0  0
   20.7350   13.6072   12.1887 C   0  0  0  0  0  0  0  0  0  0  0  0
   21.2522   14.9125   13.1723 Cl  0  0  0  0  0  0  0  0  0  0  0  0
   21.5727   12.8997   11.3519 C   0  0  0  0  0  0  0  0  0  0  0  0
  1  2  1  0
  2  3  1  0
  3  4  2  0
  3  5  1  0
  5  6  1  0
  6  7  2  0
  7  8  1  0
  8  9  1  0
  9 10  2  0
  9 11  1  0
 11 12  1  0
 12 13  2  0
 13 14  1  0
 14 15  2  0
 15 16  1  0
 15 17  1  0
 17 18  2  0
 18 19  1  0
  8 20  2  0
 20 21  1  0
 21 22  1  0
 21 23  2  0
 23  2  1  0
 23  6  1  0
 18 12  1  0
M  END
>  <ref_pdb>  (128) 
c0270a

>  <inchikey>  (128) 
KCPNXXBXGCTVPD-UHFFFAOYSA-N

>  <original ID>  (128) 
KCPNXXBXGCTVPD-UHFFFAOYSA-N

>  <generation_date>  (128) 
None

>  <alias>  (128) 
None

>  <tags>  (128) 
[]

>  <ref_mols>  (128) 
c0692a,c0894a

>  <ref_url>  (128) 
None

>  <submitter_name>  (128) 
None

>  <exports>  (128) 
nan

>  <original SMILES>  (128) 
Cn1c(=O)[nH]c2cc(C(=O)Nc3ccc(F)cc3N)cc(Cl)c21

>  <method>  (128) 
None

>  <submitter_email>  (128) 
None

>  <HIPPO ID>  (128) 
90643

$$$$
XWDGYPZKMDHOAF-UHFFFAOYSA-N
     RDKit          3D

 23 25  0  0  0  0  0  0  0  0999 V2000
   16.1248   10.4083   13.5115 N   0  0  0  0  0  0  0  0  0  0  0  0
   15.7062    9.8601   12.2762 C   0  0  0  0  0  0  0  0  0  0  0  0
   14.8707    8.7365   12.3290 C   0  0  0  0  0  0  0  0  0  0  0  0
   14.4603    8.2522   13.5414 O   0  0  0  0  0  0  0  0  0  0  0  0
   14.3771    8.1327   11.1919 C   0  0  0  0  0  0  0  0  0  0  0  0
   14.6723    8.7276    9.9847 C   0  0  0  0  0  0  0  0  0  0  0  0
   13.5304    8.4963    8.5455 Br  0  0  0  0  0  0  0  0  0  0  0  0
   15.6588    9.6837    9.8702 C   0  0  0  0  0  0  0  0  0  0  0  0
   16.2136   10.2337   11.0186 C   0  0  0  0  0  0  0  0  0  0  0  0
   17.2788   11.1126   10.7741 N   0  0  0  0  0  0  0  0  0  0  0  0
   17.7908   12.0531   11.6247 C   0  0  0  0  0  0  0  0  0  0  0  0
   17.1718   12.5660   12.5515 O   0  0  0  0  0  0  0  0  0  0  0  0
   19.2068   12.4337   11.3966 C   0  0  0  0  0  0  0  0  0  0  0  0
   19.7017   13.5346   12.1006 C   0  0  0  0  0  0  0  0  0  0  0  0
   21.0466   13.8681   11.9923 C   0  0  0  0  0  0  0  0  0  0  0  0
   21.7232   15.1713   12.8513 Cl  0  0  0  0  0  0  0  0  0  0  0  0
   21.9053   13.1393   11.1564 C   0  0  0  0  0  0  0  0  0  0  0  0
   23.2231   13.3216   10.8099 N   0  0  0  0  0  0  0  0  0  0  0  0
   23.4925   12.3647    9.9625 C   0  0  0  0  0  0  0  0  0  0  0  0
   24.6449   12.2526    9.3404 O   0  0  0  0  0  0  0  0  0  0  0  0
   22.4305   11.5440    9.7545 N   0  0  0  0  0  0  0  0  0  0  0  0
   21.3840   12.0272   10.4985 C   0  0  0  0  0  0  0  0  0  0  0  0
   20.0518   11.6286   10.6090 C   0  0  0  0  0  0  0  0  0  0  0  0
  1  2  1  0
  2  3  2  0
  3  4  1  0
  3  5  1  0
  5  6  2  0
  6  7  1  0
  6  8  1  0
  8  9  2  0
  9 10  1  0
 10 11  1  0
 11 12  2  0
 11 13  1  0
 13 14  2  0
 14 15  1  0
 15 16  1  0
 15 17  2  0
 17 18  1  0
 18 19  2  0
 19 20  1  0
 19 21  1  0
 21 22  1  0
 22 23  2  0
  9  2  1  0
 23 13  1  0
 22 17  1  0
M  END
>  <ref_pdb>  (129) 
c0270a

>  <inchikey>  (129) 
XWDGYPZKMDHOAF-UHFFFAOYSA-N

>  <original ID>  (129) 
XWDGYPZKMDHOAF-UHFFFAOYSA-N

>  <generation_date>  (129) 
None

>  <alias>  (129) 
None

>  <tags>  (129) 
[]

>  <ref_mols>  (129) 
c0692a,c0894a

>  <ref_url>  (129) 
None

>  <submitter_name>  (129) 
None

>  <exports>  (129) 
nan

>  <original SMILES>  (129) 
Nc1c(O)cc(Br)cc1NC(=O)c1cc(Cl)c2nc(O)[nH]c2c1

>  <method>  (129) 
None

>  <submitter_email>  (129) 
None

>  <HIPPO ID>  (129) 
91025

$$$$
PIRZGYIFDNVSCW-UHFFFAOYSA-N
     RDKit          3D

 23 25  0  0  0  0  0  0  0  0999 V2000
   16.0113   10.1448   13.3844 N   0  0  0  0  0  0  0  0  0  0  0  0
   15.5462    9.5877   12.1754 C   0  0  0  0  0  0  0  0  0  0  0  0
   14.7604    8.4248   12.2734 C   0  0  0  0  0  0  0  0  0  0  0  0
   14.3161    7.7565   11.1349 C   0  0  0  0  0  0  0  0  0  0  0  0
   13.2052    6.2331   11.2634 Br  0  0  0  0  0  0  0  0  0  0  0  0
   14.6646    8.2222    9.8875 C   0  0  0  0  0  0  0  0  0  0  0  0
   15.5647    9.2712    9.7856 C   0  0  0  0  0  0  0  0  0  0  0  0
   15.9593    9.5435    8.5178 O   0  0  0  0  0  0  0  0  0  0  0  0
   16.0503    9.9516   10.9078 C   0  0  0  0  0  0  0  0  0  0  0  0
   17.1198   10.8558   10.6853 N   0  0  0  0  0  0  0  0  0  0  0  0
   17.5850   11.8370   11.5298 C   0  0  0  0  0  0  0  0  0  0  0  0
   16.9176   12.3781   12.4062 O   0  0  0  0  0  0  0  0  0  0  0  0
   19.0044   12.2618   11.3430 C   0  0  0  0  0  0  0  0  0  0  0  0
   19.4554   13.3864   12.0468 C   0  0  0  0  0  0  0  0  0  0  0  0
   20.7904   13.7787   11.9507 C   0  0  0  0  0  0  0  0  0  0  0  0
   21.4058   15.1265   12.7884 Cl  0  0  0  0  0  0  0  0  0  0  0  0
   21.6865   13.0834   11.1260 C   0  0  0  0  0  0  0  0  0  0  0  0
   22.9875   13.3360   10.7531 N   0  0  0  0  0  0  0  0  0  0  0  0
   23.2912   12.3943    9.8997 C   0  0  0  0  0  0  0  0  0  0  0  0
   24.3967   12.3736    9.1872 O   0  0  0  0  0  0  0  0  0  0  0  0
   22.2897   11.4889    9.7588 N   0  0  0  0  0  0  0  0  0  0  0  0
   21.2182   11.9384   10.4876 C   0  0  0  0  0  0  0  0  0  0  0  0
   19.8987   11.4908   10.5792 C   0  0  0  0  0  0  0  0  0  0  0  0
  1  2  1  0
  2  3  2  0
  3  4  1  0
  4  5  1  0
  4  6  2  0
  6  7  1  0
  7  8  1  0
  7  9  2  0
  9 10  1  0
 10 11  1  0
 11 12  2  0
 11 13  1  0
 13 14  2  0
 14 15  1  0
 15 16  1  0
 15 17  2  0
 17 18  1  0
 18 19  2  0
 19 20  1  0
 19 21  1  0
 21 22  1  0
 22 23  2  0
  9  2  1  0
 23 13  1  0
 22 17  1  0
M  END
>  <ref_pdb>  (130) 
c0270a

>  <inchikey>  (130) 
PIRZGYIFDNVSCW-UHFFFAOYSA-N

>  <original ID>  (130) 
PIRZGYIFDNVSCW-UHFFFAOYSA-N

>  <generation_date>  (130) 
None

>  <alias>  (130) 
None

>  <tags>  (130) 
[]

>  <ref_mols>  (130) 
c0692a,c0894a

>  <ref_url>  (130) 
None

>  <submitter_name>  (130) 
None

>  <exports>  (130) 
nan

>  <original SMILES>  (130) 
Nc1cc(Br)cc(O)c1NC(=O)c1cc(Cl)c2nc(O)[nH]c2c1

>  <method>  (130) 
None

>  <submitter_email>  (130) 
None

>  <HIPPO ID>  (130) 
91026

$$$$
HESBDSGBPBXURT-UHFFFAOYSA-N
     RDKit          3D

 23 25  0  0  0  0  0  0  0  0999 V2000
   14.2727    7.8497   13.3822 C   0  0  0  0  0  0  0  0  0  0  0  0
   14.7030    8.4716   12.0827 C   0  0  0  0  0  0  0  0  0  0  0  0
   14.2287    7.9355   10.8768 C   0  0  0  0  0  0  0  0  0  0  0  0
   13.3140    6.9550   10.8922 F   0  0  0  0  0  0  0  0  0  0  0  0
   14.5960    8.4608    9.6548 C   0  0  0  0  0  0  0  0  0  0  0  0
   15.5324    9.4794    9.6168 C   0  0  0  0  0  0  0  0  0  0  0  0
   16.0264   10.0457   10.8007 C   0  0  0  0  0  0  0  0  0  0  0  0
   17.0777   10.9692   10.6169 N   0  0  0  0  0  0  0  0  0  0  0  0
   17.5601   11.8929   11.5148 C   0  0  0  0  0  0  0  0  0  0  0  0
   16.9160   12.3850   12.4370 O   0  0  0  0  0  0  0  0  0  0  0  0
   18.9791   12.3027   11.3449 C   0  0  0  0  0  0  0  0  0  0  0  0
   19.4532   13.4035   12.0713 C   0  0  0  0  0  0  0  0  0  0  0  0
   20.8018   13.7526   12.0009 C   0  0  0  0  0  0  0  0  0  0  0  0
   21.4517   15.0686   12.8634 Cl  0  0  0  0  0  0  0  0  0  0  0  0
   21.6868   13.0386   11.1798 C   0  0  0  0  0  0  0  0  0  0  0  0
   23.0140   13.2377   10.8484 N   0  0  0  0  0  0  0  0  0  0  0  0
   23.2628   12.3125    9.9654 C   0  0  0  0  0  0  0  0  0  0  0  0
   24.3701   12.2143    9.2784 O   0  0  0  0  0  0  0  0  0  0  0  0
   22.2312   11.4662    9.7669 N   0  0  0  0  0  0  0  0  0  0  0  0
   21.1789   11.9294   10.5045 C   0  0  0  0  0  0  0  0  0  0  0  0
   19.8508   11.5170   10.5766 C   0  0  0  0  0  0  0  0  0  0  0  0
   15.5394    9.6046   12.0547 C   0  0  0  0  0  0  0  0  0  0  0  0
   16.0574   10.0927   13.2768 N   0  0  0  0  0  0  0  0  0  0  0  0
  1  2  1  0
  2  3  2  0
  3  4  1  0
  3  5  1  0
  5  6  2  0
  6  7  1  0
  7  8  1  0
  8  9  1  0
  9 10  2  0
  9 11  1  0
 11 12  2  0
 12 13  1  0
 13 14  1  0
 13 15  2  0
 15 16  1  0
 16 17  2  0
 17 18  1  0
 17 19  1  0
 19 20  1  0
 20 21  2  0
  7 22  2  0
 22 23  1  0
 22  2  1  0
 21 11  1  0
 20 15  1  0
M  END
>  <ref_pdb>  (131) 
c0270a

>  <inchikey>  (131) 
HESBDSGBPBXURT-UHFFFAOYSA-N

>  <original ID>  (131) 
HESBDSGBPBXURT-UHFFFAOYSA-N

>  <generation_date>  (131) 
None

>  <alias>  (131) 
None

>  <tags>  (131) 
[]

>  <ref_mols>  (131) 
c0692a,c0894a

>  <ref_url>  (131) 
None

>  <submitter_name>  (131) 
None

>  <exports>  (131) 
nan

>  <original SMILES>  (131) 
Cc1c(F)ccc(NC(=O)c2cc(Cl)c3nc(O)[nH]c3c2)c1N

>  <method>  (131) 
None

>  <submitter_email>  (131) 
None

>  <HIPPO ID>  (131) 
91102

$$$$
OLRPHIJQJGEYPO-UHFFFAOYSA-N
     RDKit          3D

 23 25  0  0  0  0  0  0  0  0999 V2000
   15.6935   10.5008   13.5618 C   0  0  0  0  0  0  0  0  0  0  0  0
   15.4660    9.7178   12.3069 C   0  0  0  0  0  0  0  0  0  0  0  0
   14.6572    8.5797   12.4205 C   0  0  0  0  0  0  0  0  0  0  0  0
   14.0948    8.2835   13.6015 F   0  0  0  0  0  0  0  0  0  0  0  0
   14.3453    7.7630   11.3438 C   0  0  0  0  0  0  0  0  0  0  0  0
   14.7747    8.1289   10.0869 C   0  0  0  0  0  0  0  0  0  0  0  0
   15.5676    9.2622    9.9189 C   0  0  0  0  0  0  0  0  0  0  0  0
   16.0801    9.4858    8.6429 N   0  0  0  0  0  0  0  0  0  0  0  0
   15.9918   10.0159   11.0398 C   0  0  0  0  0  0  0  0  0  0  0  0
   17.0438   10.9248   10.7769 N   0  0  0  0  0  0  0  0  0  0  0  0
   17.4958   11.9736   11.5373 C   0  0  0  0  0  0  0  0  0  0  0  0
   16.8142   12.6379   12.3068 O   0  0  0  0  0  0  0  0  0  0  0  0
   18.9323   12.3401   11.3727 C   0  0  0  0  0  0  0  0  0  0  0  0
   19.4023   13.4670   12.0638 C   0  0  0  0  0  0  0  0  0  0  0  0
   20.7406   13.8365   11.9627 C   0  0  0  0  0  0  0  0  0  0  0  0
   21.3800   15.2090   12.7437 Cl  0  0  0  0  0  0  0  0  0  0  0  0
   21.6195   13.1155   11.1450 C   0  0  0  0  0  0  0  0  0  0  0  0
   22.9139   13.3661   10.7529 N   0  0  0  0  0  0  0  0  0  0  0  0
   23.1740   12.4306    9.8841 C   0  0  0  0  0  0  0  0  0  0  0  0
   24.2172   12.4182    9.0942 O   0  0  0  0  0  0  0  0  0  0  0  0
   22.1963   11.5005    9.7943 N   0  0  0  0  0  0  0  0  0  0  0  0
   21.1347   11.9643   10.5260 C   0  0  0  0  0  0  0  0  0  0  0  0
   19.8113   11.5347   10.6270 C   0  0  0  0  0  0  0  0  0  0  0  0
  1  2  1  0
  2  3  2  0
  3  4  1  0
  3  5  1  0
  5  6  2  0
  6  7  1  0
  7  8  1  0
  7  9  2  0
  9 10  1  0
 10 11  1  0
 11 12  2  0
 11 13  1  0
 13 14  2  0
 14 15  1  0
 15 16  1  0
 15 17  2  0
 17 18  1  0
 18 19  2  0
 19 20  1  0
 19 21  1  0
 21 22  1  0
 22 23  2  0
  9  2  1  0
 23 13  1  0
 22 17  1  0
M  END
>  <ref_pdb>  (132) 
c0270a

>  <inchikey>  (132) 
OLRPHIJQJGEYPO-UHFFFAOYSA-N

>  <original ID>  (132) 
OLRPHIJQJGEYPO-UHFFFAOYSA-N

>  <generation_date>  (132) 
None

>  <alias>  (132) 
None

>  <tags>  (132) 
[]

>  <ref_mols>  (132) 
c0692a,c0894a

>  <ref_url>  (132) 
None

>  <submitter_name>  (132) 
None

>  <exports>  (132) 
['/opt/xchem-fragalysis-2/maxwin/CHIKV_HIPPO/hippo_prod/CHIKV_prod11_recipes/Recipe_1GERJCJ_poses.sdf']

>  <original SMILES>  (132) 
Cc1c(F)ccc(N)c1NC(=O)c1cc(Cl)c2nc(O)[nH]c2c1

>  <method>  (132) 
None

>  <submitter_email>  (132) 
None

>  <HIPPO ID>  (132) 
91103

$$$$
SXYVLUOFUZMZEW-UHFFFAOYSA-N
     RDKit          3D

 23 25  0  0  0  0  0  0  0  0999 V2000
   16.1827   10.0312   13.4080 N   0  0  0  0  0  0  0  0  0  0  0  0
   15.6548    9.6150   12.1746 C   0  0  0  0  0  0  0  0  0  0  0  0
   14.9250    8.4189   12.1581 C   0  0  0  0  0  0  0  0  0  0  0  0
   14.3741    7.9311   10.9740 C   0  0  0  0  0  0  0  0  0  0  0  0
   13.3082    6.1285   11.0565 I   0  0  0  0  0  0  0  0  0  0  0  0
   14.5296    8.6743    9.8120 C   0  0  0  0  0  0  0  0  0  0  0  0
   13.5243    8.5040    8.4513 Cl  0  0  0  0  0  0  0  0  0  0  0  0
   15.4380    9.7184    9.7695 C   0  0  0  0  0  0  0  0  0  0  0  0
   16.0420   10.1673   10.9388 C   0  0  0  0  0  0  0  0  0  0  0  0
   17.0745   11.1025   10.7431 N   0  0  0  0  0  0  0  0  0  0  0  0
   17.6158   11.9591   11.6688 C   0  0  0  0  0  0  0  0  0  0  0  0
   17.0298   12.3859   12.6585 O   0  0  0  0  0  0  0  0  0  0  0  0
   19.0248   12.3688   11.4295 C   0  0  0  0  0  0  0  0  0  0  0  0
   19.5330   13.4695   12.1281 C   0  0  0  0  0  0  0  0  0  0  0  0
   20.8779   13.8134   11.9917 C   0  0  0  0  0  0  0  0  0  0  0  0
   21.5662   15.1324   12.8181 Cl  0  0  0  0  0  0  0  0  0  0  0  0
   21.7249   13.0919   11.1360 C   0  0  0  0  0  0  0  0  0  0  0  0
   23.0317   13.2944   10.7284 N   0  0  0  0  0  0  0  0  0  0  0  0
   23.2403   12.3559    9.8475 C   0  0  0  0  0  0  0  0  0  0  0  0
   24.2904   12.2693    9.0718 O   0  0  0  0  0  0  0  0  0  0  0  0
   22.2135   11.4855    9.7415 N   0  0  0  0  0  0  0  0  0  0  0  0
   21.1878   11.9714   10.5031 C   0  0  0  0  0  0  0  0  0  0  0  0
   19.8599   11.5695   10.6314 C   0  0  0  0  0  0  0  0  0  0  0  0
  1  2  1  0
  2  3  2  0
  3  4  1  0
  4  5  1  0
  4  6  2  0
  6  7  1  0
  6  8  1  0
  8  9  2  0
  9 10  1  0
 10 11  1  0
 11 12  2  0
 11 13  1  0
 13 14  2  0
 14 15  1  0
 15 16  1  0
 15 17  2  0
 17 18  1  0
 18 19  2  0
 19 20  1  0
 19 21  1  0
 21 22  1  0
 22 23  2  0
  9  2  1  0
 23 13  1  0
 22 17  1  0
M  END
>  <ref_pdb>  (133) 
c0270a

>  <inchikey>  (133) 
SXYVLUOFUZMZEW-UHFFFAOYSA-N

>  <original ID>  (133) 
SXYVLUOFUZMZEW-UHFFFAOYSA-N

>  <generation_date>  (133) 
None

>  <alias>  (133) 
None

>  <tags>  (133) 
[]

>  <ref_mols>  (133) 
c0692a,c0894a

>  <ref_url>  (133) 
None

>  <submitter_name>  (133) 
None

>  <exports>  (133) 
['/opt/xchem-fragalysis-2/maxwin/CHIKV_HIPPO/hippo_prod/CHIKV_prod11_recipes/Recipe_1GERJCJ_poses.sdf']

>  <original SMILES>  (133) 
Nc1cc(I)c(Cl)cc1NC(=O)c1cc(Cl)c2nc(O)[nH]c2c1

>  <method>  (133) 
None

>  <submitter_email>  (133) 
None

>  <HIPPO ID>  (133) 
91210

$$$$
LSJHCLRKCBZGLT-UHFFFAOYSA-N
     RDKit          3D

 23 25  0  0  0  0  0  0  0  0999 V2000
   13.6063    8.3747    8.7382 C   0  0  0  0  0  0  0  0  0  0  0  0
   14.5024    8.5744    9.9063 C   0  0  0  0  0  0  0  0  0  0  0  0
   15.4141    9.6273    9.8451 C   0  0  0  0  0  0  0  0  0  0  0  0
   16.0117   10.1214   11.0017 C   0  0  0  0  0  0  0  0  0  0  0  0
   17.0202   11.0773   10.7796 N   0  0  0  0  0  0  0  0  0  0  0  0
   17.5528   11.9552   11.6910 C   0  0  0  0  0  0  0  0  0  0  0  0
   16.9631   12.4009   12.6699 O   0  0  0  0  0  0  0  0  0  0  0  0
   18.9585   12.3673   11.4491 C   0  0  0  0  0  0  0  0  0  0  0  0
   19.4635   13.4847   12.1240 C   0  0  0  0  0  0  0  0  0  0  0  0
   20.8008   13.8448   11.9588 C   0  0  0  0  0  0  0  0  0  0  0  0
   21.4851   15.1914   12.7415 Cl  0  0  0  0  0  0  0  0  0  0  0  0
   21.6377   13.1216   11.0957 C   0  0  0  0  0  0  0  0  0  0  0  0
   22.9116   13.3610   10.6138 N   0  0  0  0  0  0  0  0  0  0  0  0
   23.1014   12.4096    9.7424 C   0  0  0  0  0  0  0  0  0  0  0  0
   24.0433   12.3903    8.8365 O   0  0  0  0  0  0  0  0  0  0  0  0
   22.1350   11.4672    9.7625 N   0  0  0  0  0  0  0  0  0  0  0  0
   21.1122   11.9669   10.5176 C   0  0  0  0  0  0  0  0  0  0  0  0
   19.7933   11.5533   10.6683 C   0  0  0  0  0  0  0  0  0  0  0  0
   15.6372    9.5951   12.2518 C   0  0  0  0  0  0  0  0  0  0  0  0
   16.1724   10.0427   13.4728 N   0  0  0  0  0  0  0  0  0  0  0  0
   14.9055    8.4012   12.2698 C   0  0  0  0  0  0  0  0  0  0  0  0
   14.3437    7.8861   11.1043 C   0  0  0  0  0  0  0  0  0  0  0  0
   13.2867    6.3119   11.2323 Br  0  0  0  0  0  0  0  0  0  0  0  0
  1  2  1  0
  2  3  2  0
  3  4  1  0
  4  5  1  0
  5  6  1  0
  6  7  2  0
  6  8  1  0
  8  9  2  0
  9 10  1  0
 10 11  1  0
 10 12  2  0
 12 13  1  0
 13 14  2  0
 14 15  1  0
 14 16  1  0
 16 17  1  0
 17 18  2  0
  4 19  2  0
 19 20  1  0
 19 21  1  0
 21 22  2  0
 22 23  1  0
 22  2  1  0
 18  8  1  0
 17 12  1  0
M  END
>  <ref_pdb>  (134) 
c0270a

>  <inchikey>  (134) 
LSJHCLRKCBZGLT-UHFFFAOYSA-N

>  <original ID>  (134) 
LSJHCLRKCBZGLT-UHFFFAOYSA-N

>  <generation_date>  (134) 
None

>  <alias>  (134) 
None

>  <tags>  (134) 
[]

>  <ref_mols>  (134) 
c0692a,c0894a

>  <ref_url>  (134) 
None

>  <submitter_name>  (134) 
None

>  <exports>  (134) 
nan

>  <original SMILES>  (134) 
Cc1cc(NC(=O)c2cc(Cl)c3nc(O)[nH]c3c2)c(N)cc1Br

>  <method>  (134) 
None

>  <submitter_email>  (134) 
None

>  <HIPPO ID>  (134) 
91212

$$$$
IPUIXGAXSUBNDX-UHFFFAOYSA-N
     RDKit          3D

 23 25  0  0  0  0  0  0  0  0999 V2000
   13.4272    6.5889   11.4559 C   0  0  0  0  0  0  0  0  0  0  0  0
   14.3087    7.7999   11.3432 C   0  0  0  0  0  0  0  0  0  0  0  0
   14.7213    8.1862   10.0681 C   0  0  0  0  0  0  0  0  0  0  0  0
   15.5443    9.2922    9.8706 C   0  0  0  0  0  0  0  0  0  0  0  0
   16.0465    9.4941    8.5902 N   0  0  0  0  0  0  0  0  0  0  0  0
   16.0202   10.0067   10.9751 C   0  0  0  0  0  0  0  0  0  0  0  0
   17.0408   10.9506   10.7444 N   0  0  0  0  0  0  0  0  0  0  0  0
   17.5505   11.8406   11.6600 C   0  0  0  0  0  0  0  0  0  0  0  0
   16.9726   12.2412   12.6632 O   0  0  0  0  0  0  0  0  0  0  0  0
   18.9405   12.3088   11.4097 C   0  0  0  0  0  0  0  0  0  0  0  0
   19.3917   13.4452   12.0932 C   0  0  0  0  0  0  0  0  0  0  0  0
   20.7191   13.8453   11.9631 C   0  0  0  0  0  0  0  0  0  0  0  0
   21.3470   15.2232   12.7441 Cl  0  0  0  0  0  0  0  0  0  0  0  0
   21.6043   13.1380   11.1379 C   0  0  0  0  0  0  0  0  0  0  0  0
   22.8978   13.3989   10.7489 N   0  0  0  0  0  0  0  0  0  0  0  0
   23.1766   12.4539    9.8960 C   0  0  0  0  0  0  0  0  0  0  0  0
   24.2444   12.4250    9.1402 O   0  0  0  0  0  0  0  0  0  0  0  0
   22.2009   11.5236    9.7934 N   0  0  0  0  0  0  0  0  0  0  0  0
   21.1327   11.9814   10.5187 C   0  0  0  0  0  0  0  0  0  0  0  0
   19.8177   11.5331   10.6304 C   0  0  0  0  0  0  0  0  0  0  0  0
   15.5712    9.6769   12.2507 C   0  0  0  0  0  0  0  0  0  0  0  0
   14.7432    8.5663   12.4347 C   0  0  0  0  0  0  0  0  0  0  0  0
   14.2164    8.1808   14.2200 Br  0  0  0  0  0  0  0  0  0  0  0  0
  1  2  1  0
  2  3  2  0
  3  4  1  0
  4  5  1  0
  4  6  2  0
  6  7  1  0
  7  8  1  0
  8  9  2  0
  8 10  1  0
 10 11  2  0
 11 12  1  0
 12 13  1  0
 12 14  2  0
 14 15  1  0
 15 16  2  0
 16 17  1  0
 16 18  1  0
 18 19  1  0
 19 20  2  0
  6 21  1  0
 21 22  2  0
 22 23  1  0
 22  2  1  0
 20 10  1  0
 19 14  1  0
M  END
>  <ref_pdb>  (135) 
c0270a

>  <inchikey>  (135) 
IPUIXGAXSUBNDX-UHFFFAOYSA-N

>  <original ID>  (135) 
IPUIXGAXSUBNDX-UHFFFAOYSA-N

>  <generation_date>  (135) 
None

>  <alias>  (135) 
None

>  <tags>  (135) 
[]

>  <ref_mols>  (135) 
c0692a,c0894a

>  <ref_url>  (135) 
None

>  <submitter_name>  (135) 
None

>  <exports>  (135) 
nan

>  <original SMILES>  (135) 
Cc1cc(N)c(NC(=O)c2cc(Cl)c3nc(O)[nH]c3c2)cc1Br

>  <method>  (135) 
None

>  <submitter_email>  (135) 
None

>  <HIPPO ID>  (135) 
91213

$$$$
PXXVQNRSZJDCQK-UHFFFAOYSA-N
     RDKit          3D

 23 25  0  0  0  0  0  0  0  0999 V2000
   16.7650   12.6049   12.1532 O   0  0  0  0  0  0  0  0  0  0  0  0
   17.4947   11.9527   11.4188 C   0  0  0  0  0  0  0  0  0  0  0  0
   17.0764   10.9263   10.6043 N   0  0  0  0  0  0  0  0  0  0  0  0
   16.0131   10.0245   10.8165 C   0  0  0  0  0  0  0  0  0  0  0  0
   15.5218    9.4397    9.6434 C   0  0  0  0  0  0  0  0  0  0  0  0
   14.6293    8.3799    9.6902 C   0  0  0  0  0  0  0  0  0  0  0  0
   14.2865    7.8199   10.9120 C   0  0  0  0  0  0  0  0  0  0  0  0
   13.2150    6.2517   10.8538 Br  0  0  0  0  0  0  0  0  0  0  0  0
   14.7139    8.4229   12.1047 C   0  0  0  0  0  0  0  0  0  0  0  0
   14.2022    7.7685   13.6396 Cl  0  0  0  0  0  0  0  0  0  0  0  0
   15.5408    9.5645   12.0626 C   0  0  0  0  0  0  0  0  0  0  0  0
   16.0330   10.2683   13.5696 Cl  0  0  0  0  0  0  0  0  0  0  0  0
   18.9384   12.3140   11.3225 C   0  0  0  0  0  0  0  0  0  0  0  0
   19.3921   13.4136   12.0625 C   0  0  0  0  0  0  0  0  0  0  0  0
   20.7422   13.7553   12.0386 C   0  0  0  0  0  0  0  0  0  0  0  0
   21.3697   15.0696   12.9200 Cl  0  0  0  0  0  0  0  0  0  0  0  0
   21.6507   13.0337   11.2519 C   0  0  0  0  0  0  0  0  0  0  0  0
   22.9855   13.2220   10.9849 N   0  0  0  0  0  0  0  0  0  0  0  0
   23.3041   12.2828   10.1364 C   0  0  0  0  0  0  0  0  0  0  0  0
   24.4926   12.1838    9.5868 O   0  0  0  0  0  0  0  0  0  0  0  0
   22.2576   11.4646    9.8564 N   0  0  0  0  0  0  0  0  0  0  0  0
   21.1714   11.9278   10.5540 C   0  0  0  0  0  0  0  0  0  0  0  0
   19.8360   11.5228   10.5819 C   0  0  0  0  0  0  0  0  0  0  0  0
  1  2  2  0
  2  3  1  0
  3  4  1  0
  4  5  2  0
  5  6  1  0
  6  7  2  0
  7  8  1  0
  7  9  1  0
  9 10  1  0
  9 11  2  0
 11 12  1  0
  2 13  1  0
 13 14  2  0
 14 15  1  0
 15 16  1  0
 15 17  2  0
 17 18  1  0
 18 19  2  0
 19 20  1  0
 19 21  1  0
 21 22  1  0
 22 23  2  0
 11  4  1  0
 23 13  1  0
 22 17  1  0
M  END
>  <ref_pdb>  (136) 
c0270a

>  <inchikey>  (136) 
PXXVQNRSZJDCQK-UHFFFAOYSA-N

>  <original ID>  (136) 
PXXVQNRSZJDCQK-UHFFFAOYSA-N

>  <generation_date>  (136) 
None

>  <alias>  (136) 
None

>  <tags>  (136) 
[]

>  <ref_mols>  (136) 
c0692a,c0894a

>  <ref_url>  (136) 
None

>  <submitter_name>  (136) 
None

>  <exports>  (136) 
nan

>  <original SMILES>  (136) 
O=C(Nc1ccc(Br)c(Cl)c1Cl)c1cc(Cl)c2nc(O)[nH]c2c1

>  <method>  (136) 
None

>  <submitter_email>  (136) 
None

>  <HIPPO ID>  (136) 
91579

$$$$
CPAHGIPOWMNTQJ-UHFFFAOYSA-N
     RDKit          3D

 23 25  0  0  0  0  0  0  0  0999 V2000
   12.7353    6.1562   11.6677 C   0  0  0  0  0  0  0  0  0  0  0  0
   13.1939    6.8483   10.5141 O   0  0  0  0  0  0  0  0  0  0  0  0
   14.1266    7.8309   10.6834 C   0  0  0  0  0  0  0  0  0  0  0  0
   14.5262    8.4530    9.5133 C   0  0  0  0  0  0  0  0  0  0  0  0
   15.4841    9.4598    9.5438 C   0  0  0  0  0  0  0  0  0  0  0  0
   15.9821    9.9580   10.7534 C   0  0  0  0  0  0  0  0  0  0  0  0
   17.0568   10.8590   10.6047 N   0  0  0  0  0  0  0  0  0  0  0  0
   17.4778   11.8516   11.4576 C   0  0  0  0  0  0  0  0  0  0  0  0
   16.7695   12.4460   12.2586 O   0  0  0  0  0  0  0  0  0  0  0  0
   18.9103   12.2578   11.3277 C   0  0  0  0  0  0  0  0  0  0  0  0
   19.3530   13.3680   12.0598 C   0  0  0  0  0  0  0  0  0  0  0  0
   20.6977   13.7345   12.0221 C   0  0  0  0  0  0  0  0  0  0  0  0
   21.3102   15.0611   12.8967 Cl  0  0  0  0  0  0  0  0  0  0  0  0
   21.6144   13.0252   11.2333 C   0  0  0  0  0  0  0  0  0  0  0  0
   22.9460   13.2328   10.9580 N   0  0  0  0  0  0  0  0  0  0  0  0
   23.2769   12.2907   10.1165 C   0  0  0  0  0  0  0  0  0  0  0  0
   24.4651   12.2026    9.5612 O   0  0  0  0  0  0  0  0  0  0  0  0
   22.2401   11.4560    9.8473 N   0  0  0  0  0  0  0  0  0  0  0  0
   21.1477   11.9099   10.5423 C   0  0  0  0  0  0  0  0  0  0  0  0
   19.8165   11.4874   10.5757 C   0  0  0  0  0  0  0  0  0  0  0  0
   15.4736    9.4220   11.9443 C   0  0  0  0  0  0  0  0  0  0  0  0
   15.8604   10.0233   13.7003 Br  0  0  0  0  0  0  0  0  0  0  0  0
   14.6169    8.3071   11.8960 C   0  0  0  0  0  0  0  0  0  0  0  0
  1  2  1  0
  2  3  1  0
  3  4  2  0
  4  5  1  0
  5  6  2  0
  6  7  1  0
  7  8  1  0
  8  9  2  0
  8 10  1  0
 10 11  2  0
 11 12  1  0
 12 13  1  0
 12 14  2  0
 14 15  1  0
 15 16  2  0
 16 17  1  0
 16 18  1  0
 18 19  1  0
 19 20  2  0
  6 21  1  0
 21 22  1  0
 21 23  2  0
 23  3  1  0
 20 10  1  0
 19 14  1  0
M  END
>  <ref_pdb>  (137) 
c0270a

>  <inchikey>  (137) 
CPAHGIPOWMNTQJ-UHFFFAOYSA-N

>  <original ID>  (137) 
CPAHGIPOWMNTQJ-UHFFFAOYSA-N

>  <generation_date>  (137) 
None

>  <alias>  (137) 
None

>  <tags>  (137) 
[]

>  <ref_mols>  (137) 
c0692a,c0894a

>  <ref_url>  (137) 
None

>  <submitter_name>  (137) 
None

>  <exports>  (137) 
nan

>  <original SMILES>  (137) 
COc1ccc(NC(=O)c2cc(Cl)c3nc(O)[nH]c3c2)c(Br)c1

>  <method>  (137) 
None

>  <submitter_email>  (137) 
None

>  <HIPPO ID>  (137) 
91619

$$$$
SORNEFMINAHBBF-UHFFFAOYSA-N
     RDKit          3D

 23 25  0  0  0  0  0  0  0  0999 V2000
   15.5858    8.7404   14.7004 C   0  0  0  0  0  0  0  0  0  0  0  0
   15.8803   10.1266   13.5843 S   0  0  0  0  0  0  0  0  0  0  0  0
   15.4796    9.4967   11.9537 C   0  0  0  0  0  0  0  0  0  0  0  0
   14.6511    8.3706   11.8250 C   0  0  0  0  0  0  0  0  0  0  0  0
   14.2177    7.9261   10.5780 C   0  0  0  0  0  0  0  0  0  0  0  0
   13.3717    6.8608   10.5192 O   0  0  0  0  0  0  0  0  0  0  0  0
   14.5757    8.5871    9.4273 C   0  0  0  0  0  0  0  0  0  0  0  0
   15.4893    9.6186    9.5190 C   0  0  0  0  0  0  0  0  0  0  0  0
   15.9692   10.0711   10.7597 C   0  0  0  0  0  0  0  0  0  0  0  0
   17.0472   10.9698   10.6396 N   0  0  0  0  0  0  0  0  0  0  0  0
   17.4651   11.9549   11.5010 C   0  0  0  0  0  0  0  0  0  0  0  0
   16.7521   12.5955   12.2607 O   0  0  0  0  0  0  0  0  0  0  0  0
   18.9057   12.3238   11.3904 C   0  0  0  0  0  0  0  0  0  0  0  0
   19.3617   13.4517   12.0862 C   0  0  0  0  0  0  0  0  0  0  0  0
   20.6951   13.8379   11.9763 C   0  0  0  0  0  0  0  0  0  0  0  0
   21.3228   15.2237   12.7432 Cl  0  0  0  0  0  0  0  0  0  0  0  0
   21.5752   13.1329   11.1446 C   0  0  0  0  0  0  0  0  0  0  0  0
   22.8482   13.4199   10.7091 N   0  0  0  0  0  0  0  0  0  0  0  0
   23.1030   12.4903    9.8321 C   0  0  0  0  0  0  0  0  0  0  0  0
   24.0815   12.5343    8.9651 O   0  0  0  0  0  0  0  0  0  0  0  0
   22.1693   11.5126    9.8054 N   0  0  0  0  0  0  0  0  0  0  0  0
   21.1076   11.9662   10.5423 C   0  0  0  0  0  0  0  0  0  0  0  0
   19.7935   11.5204   10.6519 C   0  0  0  0  0  0  0  0  0  0  0  0
  1  2  1  0
  2  3  1  0
  3  4  2  0
  4  5  1  0
  5  6  1  0
  5  7  2  0
  7  8  1  0
  8  9  2  0
  9 10  1  0
 10 11  1  0
 11 12  2  0
 11 13  1  0
 13 14  2  0
 14 15  1  0
 15 16  1  0
 15 17  2  0
 17 18  1  0
 18 19  2  0
 19 20  1  0
 19 21  1  0
 21 22  1  0
 22 23  2  0
  9  3  1  0
 23 13  1  0
 22 17  1  0
M  END
>  <ref_pdb>  (138) 
c0270a

>  <inchikey>  (138) 
SORNEFMINAHBBF-UHFFFAOYSA-N

>  <original ID>  (138) 
SORNEFMINAHBBF-UHFFFAOYSA-N

>  <generation_date>  (138) 
None

>  <alias>  (138) 
None

>  <tags>  (138) 
[]

>  <ref_mols>  (138) 
c0692a,c0894a

>  <ref_url>  (138) 
None

>  <submitter_name>  (138) 
None

>  <exports>  (138) 
nan

>  <original SMILES>  (138) 
CSc1cc(O)ccc1NC(=O)c1cc(Cl)c2nc(O)[nH]c2c1

>  <method>  (138) 
None

>  <submitter_email>  (138) 
None

>  <HIPPO ID>  (138) 
91882

$$$$
ZDLUTNAWQAIBPF-UHFFFAOYSA-N
     RDKit          3D

 23 26  0  0  0  0  0  0  0  0999 V2000
   16.8521   12.0585   12.6543 O   0  0  0  0  0  0  0  0  0  0  0  0
   17.4121   11.7711   11.6037 C   0  0  0  0  0  0  0  0  0  0  0  0
   16.9003   10.9801   10.5977 N   0  0  0  0  0  0  0  0  0  0  0  0
   15.9253    9.9856   10.7494 C   0  0  0  0  0  0  0  0  0  0  0  0
   15.3838    9.4465    9.5809 C   0  0  0  0  0  0  0  0  0  0  0  0
   14.5005    8.3688    9.6167 C   0  0  0  0  0  0  0  0  0  0  0  0
   14.2556    7.8031   10.8641 C   0  0  0  0  0  0  0  0  0  0  0  0
   13.4851    6.7362   11.2442 N   0  0  0  0  0  0  0  0  0  0  0  0
   13.4331    6.5507   12.5760 N   0  0  0  0  0  0  0  0  0  0  0  0
   14.2303    7.5064   13.0586 C   0  0  0  0  0  0  0  0  0  0  0  0
   14.7622    8.3305   12.0453 C   0  0  0  0  0  0  0  0  0  0  0  0
   15.5816    9.4658   12.0002 C   0  0  0  0  0  0  0  0  0  0  0  0
   18.7945   12.2585   11.3903 C   0  0  0  0  0  0  0  0  0  0  0  0
   19.2490   13.3764   12.1000 C   0  0  0  0  0  0  0  0  0  0  0  0
   20.5899   13.7478   12.0088 C   0  0  0  0  0  0  0  0  0  0  0  0
   21.2334   15.0842   12.8440 Cl  0  0  0  0  0  0  0  0  0  0  0  0
   21.4791   13.0230   11.2023 C   0  0  0  0  0  0  0  0  0  0  0  0
   22.7933   13.2299   10.8556 N   0  0  0  0  0  0  0  0  0  0  0  0
   23.0790   12.2676   10.0206 C   0  0  0  0  0  0  0  0  0  0  0  0
   24.1929   12.1994    9.3370 O   0  0  0  0  0  0  0  0  0  0  0  0
   22.0579   11.3933    9.8670 N   0  0  0  0  0  0  0  0  0  0  0  0
   20.9906   11.8892   10.5599 C   0  0  0  0  0  0  0  0  0  0  0  0
   19.6673   11.4755   10.6212 C   0  0  0  0  0  0  0  0  0  0  0  0
  1  2  2  0
  2  3  1  0
  3  4  1  0
  4  5  2  0
  5  6  1  0
  6  7  2  0
  7  8  1  0
  8  9  1  0
  9 10  2  0
 10 11  1  0
 11 12  2  0
  2 13  1  0
 13 14  2  0
 14 15  1  0
 15 16  1  0
 15 17  2  0
 17 18  1  0
 18 19  2  0
 19 20  1  0
 19 21  1  0
 21 22  1  0
 22 23  2  0
 12  4  1  0
 23 13  1  0
 11  7  1  0
 22 17  1  0
M  END
>  <ref_pdb>  (139) 
c0270a

>  <inchikey>  (139) 
ZDLUTNAWQAIBPF-UHFFFAOYSA-N

>  <original ID>  (139) 
ZDLUTNAWQAIBPF-UHFFFAOYSA-N

>  <generation_date>  (139) 
None

>  <alias>  (139) 
None

>  <tags>  (139) 
[]

>  <ref_mols>  (139) 
c0692a,c0894a

>  <ref_url>  (139) 
None

>  <submitter_name>  (139) 
None

>  <exports>  (139) 
nan

>  <original SMILES>  (139) 
O=C(Nc1ccc2[nH]ncc2c1)c1cc(Cl)c2nc(O)[nH]c2c1

>  <method>  (139) 
None

>  <submitter_email>  (139) 
None

>  <HIPPO ID>  (139) 
91897

$$$$
YXVDQKNPOQPANJ-UHFFFAOYSA-N
     RDKit          3D

 23 25  0  0  0  0  0  0  0  0999 V2000
   15.9007   10.2959   13.6349 C   0  0  0  0  0  0  0  0  0  0  0  0
   15.6430    9.6880   12.2922 C   0  0  0  0  0  0  0  0  0  0  0  0
   14.8303    8.5413   12.2801 C   0  0  0  0  0  0  0  0  0  0  0  0
   14.3262    8.0536   11.0887 C   0  0  0  0  0  0  0  0  0  0  0  0
   13.4010    7.0827   11.1155 F   0  0  0  0  0  0  0  0  0  0  0  0
   14.6126    8.7186    9.9183 C   0  0  0  0  0  0  0  0  0  0  0  0
   13.4892    8.5584    8.4587 Br  0  0  0  0  0  0  0  0  0  0  0  0
   15.5688    9.7076    9.8764 C   0  0  0  0  0  0  0  0  0  0  0  0
   16.0924   10.2064   11.0636 C   0  0  0  0  0  0  0  0  0  0  0  0
   17.1052   11.1487   10.8604 N   0  0  0  0  0  0  0  0  0  0  0  0
   17.6048   12.0857   11.7238 C   0  0  0  0  0  0  0  0  0  0  0  0
   16.9856   12.6307   12.6255 O   0  0  0  0  0  0  0  0  0  0  0  0
   19.0282   12.4474   11.4917 C   0  0  0  0  0  0  0  0  0  0  0  0
   19.5620   13.5532   12.1605 C   0  0  0  0  0  0  0  0  0  0  0  0
   20.9062   13.8796   11.9866 C   0  0  0  0  0  0  0  0  0  0  0  0
   21.6256   15.2078   12.7679 Cl  0  0  0  0  0  0  0  0  0  0  0  0
   21.7193   13.1393   11.1146 C   0  0  0  0  0  0  0  0  0  0  0  0
   22.9956   13.3467   10.6244 N   0  0  0  0  0  0  0  0  0  0  0  0
   23.1492   12.3989    9.7420 C   0  0  0  0  0  0  0  0  0  0  0  0
   24.0839   12.3613    8.8305 O   0  0  0  0  0  0  0  0  0  0  0  0
   22.1597   11.4822    9.7619 N   0  0  0  0  0  0  0  0  0  0  0  0
   21.1628   11.9988   10.5383 C   0  0  0  0  0  0  0  0  0  0  0  0
   19.8407   11.6101   10.7084 C   0  0  0  0  0  0  0  0  0  0  0  0
  1  2  1  0
  2  3  2  0
  3  4  1  0
  4  5  1  0
  4  6  2  0
  6  7  1  0
  6  8  1  0
  8  9  2  0
  9 10  1  0
 10 11  1  0
 11 12  2  0
 11 13  1  0
 13 14  2  0
 14 15  1  0
 15 16  1  0
 15 17  2  0
 17 18  1  0
 18 19  2  0
 19 20  1  0
 19 21  1  0
 21 22  1  0
 22 23  2  0
  9  2  1  0
 23 13  1  0
 22 17  1  0
M  END
>  <ref_pdb>  (140) 
c0270a

>  <inchikey>  (140) 
YXVDQKNPOQPANJ-UHFFFAOYSA-N

>  <original ID>  (140) 
YXVDQKNPOQPANJ-UHFFFAOYSA-N

>  <generation_date>  (140) 
None

>  <alias>  (140) 
None

>  <tags>  (140) 
[]

>  <ref_mols>  (140) 
c0692a,c0894a

>  <ref_url>  (140) 
None

>  <submitter_name>  (140) 
None

>  <exports>  (140) 
nan

>  <original SMILES>  (140) 
Cc1cc(F)c(Br)cc1NC(=O)c1cc(Cl)c2nc(O)[nH]c2c1

>  <method>  (140) 
None

>  <submitter_email>  (140) 
None

>  <HIPPO ID>  (140) 
91932

$$$$
IDMXEDIUIWDNKT-UHFFFAOYSA-N
     RDKit          3D

 23 25  0  0  0  0  0  0  0  0999 V2000
   16.8871   12.5462   12.4775 O   0  0  0  0  0  0  0  0  0  0  0  0
   17.5464   11.9931   11.6096 C   0  0  0  0  0  0  0  0  0  0  0  0
   17.0682   11.0559   10.7282 N   0  0  0  0  0  0  0  0  0  0  0  0
   16.0208   10.1395   10.9139 C   0  0  0  0  0  0  0  0  0  0  0  0
   15.4321    9.7074    9.7283 C   0  0  0  0  0  0  0  0  0  0  0  0
   14.5017    8.6820    9.7434 C   0  0  0  0  0  0  0  0  0  0  0  0
   13.4974    8.5387    8.3825 Cl  0  0  0  0  0  0  0  0  0  0  0  0
   14.2962    7.9333   10.8918 C   0  0  0  0  0  0  0  0  0  0  0  0
   13.3101    6.5169   10.9063 Cl  0  0  0  0  0  0  0  0  0  0  0  0
   14.8265    8.3924   12.0909 C   0  0  0  0  0  0  0  0  0  0  0  0
   15.6126    9.5499   12.1202 C   0  0  0  0  0  0  0  0  0  0  0  0
   16.0558   10.0830   13.6917 Cl  0  0  0  0  0  0  0  0  0  0  0  0
   18.9757   12.3695   11.4246 C   0  0  0  0  0  0  0  0  0  0  0  0
   19.4816   13.4625   12.1382 C   0  0  0  0  0  0  0  0  0  0  0  0
   20.8346   13.7873   12.0391 C   0  0  0  0  0  0  0  0  0  0  0  0
   21.5232   15.0945   12.8841 Cl  0  0  0  0  0  0  0  0  0  0  0  0
   21.6925   13.0558   11.2035 C   0  0  0  0  0  0  0  0  0  0  0  0
   23.0168   13.2299   10.8459 N   0  0  0  0  0  0  0  0  0  0  0  0
   23.2340   12.2953    9.9642 C   0  0  0  0  0  0  0  0  0  0  0  0
   24.3250   12.1735    9.2552 O   0  0  0  0  0  0  0  0  0  0  0  0
   22.1854   11.4639    9.7929 N   0  0  0  0  0  0  0  0  0  0  0  0
   21.1535   11.9529   10.5424 C   0  0  0  0  0  0  0  0  0  0  0  0
   19.8199   11.5659   10.6395 C   0  0  0  0  0  0  0  0  0  0  0  0
  1  2  2  0
  2  3  1  0
  3  4  1  0
  4  5  2  0
  5  6  1  0
  6  7  1  0
  6  8  2  0
  8  9  1  0
  8 10  1  0
 10 11  2  0
 11 12  1  0
  2 13  1  0
 13 14  2  0
 14 15  1  0
 15 16  1  0
 15 17  2  0
 17 18  1  0
 18 19  2  0
 19 20  1  0
 19 21  1  0
 21 22  1  0
 22 23  2  0
 11  4  1  0
 23 13  1  0
 22 17  1  0
M  END
>  <ref_pdb>  (141) 
c0270a

>  <inchikey>  (141) 
IDMXEDIUIWDNKT-UHFFFAOYSA-N

>  <original ID>  (141) 
IDMXEDIUIWDNKT-UHFFFAOYSA-N

>  <generation_date>  (141) 
None

>  <alias>  (141) 
None

>  <tags>  (141) 
[]

>  <ref_mols>  (141) 
c0692a,c0894a

>  <ref_url>  (141) 
None

>  <submitter_name>  (141) 
None

>  <exports>  (141) 
nan

>  <original SMILES>  (141) 
O=C(Nc1cc(Cl)c(Cl)cc1Cl)c1cc(Cl)c2nc(O)[nH]c2c1

>  <method>  (141) 
None

>  <submitter_email>  (141) 
None

>  <HIPPO ID>  (141) 
91981

$$$$
XFSUHKJPCLBQRD-UHFFFAOYSA-N
     RDKit          3D

 23 25  0  0  0  0  0  0  0  0999 V2000
   23.8915   13.6740   11.7843 C   0  0  0  0  0  0  0  0  0  0  0  0
   22.8716   12.9561   11.0946 N   0  0  0  0  0  0  0  0  0  0  0  0
   23.1504   12.0700   10.0457 C   0  0  0  0  0  0  0  0  0  0  0  0
   24.1857   11.9532    9.4271 O   0  0  0  0  0  0  0  0  0  0  0  0
   21.9894   11.3570    9.8090 N   0  0  0  0  0  0  0  0  0  0  0  0
   20.9857   11.8572   10.6097 C   0  0  0  0  0  0  0  0  0  0  0  0
   19.6666   11.4961   10.5918 C   0  0  0  0  0  0  0  0  0  0  0  0
   18.7989   12.2543   11.3759 C   0  0  0  0  0  0  0  0  0  0  0  0
   17.3559   11.9060   11.4612 C   0  0  0  0  0  0  0  0  0  0  0  0
   16.6437   12.5453   12.2217 O   0  0  0  0  0  0  0  0  0  0  0  0
   16.9371   10.9129   10.6123 N   0  0  0  0  0  0  0  0  0  0  0  0
   15.8882    9.9878   10.7614 C   0  0  0  0  0  0  0  0  0  0  0  0
   15.4174    9.4796    9.5369 C   0  0  0  0  0  0  0  0  0  0  0  0
   14.4869    8.4518    9.4851 C   0  0  0  0  0  0  0  0  0  0  0  0
   14.1182    7.8320   10.6557 C   0  0  0  0  0  0  0  0  0  0  0  0
   13.1974    6.8614   10.6290 F   0  0  0  0  0  0  0  0  0  0  0  0
   14.5786    8.2965   11.8801 C   0  0  0  0  0  0  0  0  0  0  0  0
   15.3881    9.4380   11.9515 C   0  0  0  0  0  0  0  0  0  0  0  0
   15.6836   10.1097   13.9101 I   0  0  0  0  0  0  0  0  0  0  0  0
   19.2979   13.3048   12.1849 C   0  0  0  0  0  0  0  0  0  0  0  0
   20.6668   13.6064   12.2215 C   0  0  0  0  0  0  0  0  0  0  0  0
   21.1951   14.9094   13.2021 Cl  0  0  0  0  0  0  0  0  0  0  0  0
   21.5057   12.8764   11.4064 C   0  0  0  0  0  0  0  0  0  0  0  0
  1  2  1  0
  2  3  1  0
  3  4  2  0
  3  5  1  0
  5  6  1  0
  6  7  2  0
  7  8  1  0
  8  9  1  0
  9 10  2  0
  9 11  1  0
 11 12  1  0
 12 13  2  0
 13 14  1  0
 14 15  2  0
 15 16  1  0
 15 17  1  0
 17 18  2  0
 18 19  1  0
  8 20  2  0
 20 21  1  0
 21 22  1  0
 21 23  2  0
 23  2  1  0
 23  6  1  0
 18 12  1  0
M  END
>  <ref_pdb>  (142) 
c0270a

>  <inchikey>  (142) 
XFSUHKJPCLBQRD-UHFFFAOYSA-N

>  <original ID>  (142) 
XFSUHKJPCLBQRD-UHFFFAOYSA-N

>  <generation_date>  (142) 
None

>  <alias>  (142) 
None

>  <tags>  (142) 
[]

>  <ref_mols>  (142) 
c0692a,c0894a

>  <ref_url>  (142) 
None

>  <submitter_name>  (142) 
None

>  <exports>  (142) 
nan

>  <original SMILES>  (142) 
Cn1c(=O)[nH]c2cc(C(=O)Nc3ccc(F)cc3I)cc(Cl)c21

>  <method>  (142) 
None

>  <submitter_email>  (142) 
None

>  <HIPPO ID>  (142) 
92031

$$$$
WBYDKIQWNIYSNG-UHFFFAOYSA-N
     RDKit          3D

 23 25  0  0  0  0  0  0  0  0999 V2000
   23.9069   13.6723   11.7108 C   0  0  0  0  0  0  0  0  0  0  0  0
   22.8747   12.9582   11.0357 N   0  0  0  0  0  0  0  0  0  0  0  0
   23.1356   12.0880    9.9668 C   0  0  0  0  0  0  0  0  0  0  0  0
   24.1483   12.0045    9.3042 O   0  0  0  0  0  0  0  0  0  0  0  0
   21.9775   11.3551    9.7667 N   0  0  0  0  0  0  0  0  0  0  0  0
   20.9834   11.8479   10.5869 C   0  0  0  0  0  0  0  0  0  0  0  0
   19.6610   11.4878   10.5868 C   0  0  0  0  0  0  0  0  0  0  0  0
   18.8046   12.2428   11.3870 C   0  0  0  0  0  0  0  0  0  0  0  0
   17.3650   11.8862   11.5091 C   0  0  0  0  0  0  0  0  0  0  0  0
   16.6919   12.4614   12.3529 O   0  0  0  0  0  0  0  0  0  0  0  0
   16.9002   10.9554   10.6128 N   0  0  0  0  0  0  0  0  0  0  0  0
   15.8538   10.0245   10.7662 C   0  0  0  0  0  0  0  0  0  0  0  0
   15.2886    9.5920    9.5601 C   0  0  0  0  0  0  0  0  0  0  0  0
   14.4107    8.5223    9.5345 C   0  0  0  0  0  0  0  0  0  0  0  0
   13.7378    8.2567    8.3877 O   0  0  0  0  0  0  0  0  0  0  0  0
   14.1740    7.7716   10.6667 C   0  0  0  0  0  0  0  0  0  0  0  0
   14.6756    8.2281   11.8828 C   0  0  0  0  0  0  0  0  0  0  0  0
   15.4459    9.3998   11.9536 C   0  0  0  0  0  0  0  0  0  0  0  0
   15.8559    9.9584   13.7157 Br  0  0  0  0  0  0  0  0  0  0  0  0
   19.3182   13.2895   12.1921 C   0  0  0  0  0  0  0  0  0  0  0  0
   20.6877   13.5922   12.2083 C   0  0  0  0  0  0  0  0  0  0  0  0
   21.2268   14.8938   13.1856 Cl  0  0  0  0  0  0  0  0  0  0  0  0
   21.5153   12.8669   11.3768 C   0  0  0  0  0  0  0  0  0  0  0  0
  1  2  1  0
  2  3  1  0
  3  4  2  0
  3  5  1  0
  5  6  1  0
  6  7  2  0
  7  8  1  0
  8  9  1  0
  9 10  2  0
  9 11  1  0
 11 12  1  0
 12 13  2  0
 13 14  1  0
 14 15  1  0
 14 16  2  0
 16 17  1  0
 17 18  2  0
 18 19  1  0
  8 20  2  0
 20 21  1  0
 21 22  1  0
 21 23  2  0
 23  2  1  0
 23  6  1  0
 18 12  1  0
M  END
>  <ref_pdb>  (143) 
c0270a

>  <inchikey>  (143) 
WBYDKIQWNIYSNG-UHFFFAOYSA-N

>  <original ID>  (143) 
WBYDKIQWNIYSNG-UHFFFAOYSA-N

>  <generation_date>  (143) 
None

>  <alias>  (143) 
None

>  <tags>  (143) 
[]

>  <ref_mols>  (143) 
c0692a,c0894a

>  <ref_url>  (143) 
None

>  <submitter_name>  (143) 
None

>  <exports>  (143) 
nan

>  <original SMILES>  (143) 
Cn1c(=O)[nH]c2cc(C(=O)Nc3cc(O)ccc3Br)cc(Cl)c21

>  <method>  (143) 
None

>  <submitter_email>  (143) 
None

>  <HIPPO ID>  (143) 
92041

$$$$
UDTBBONDMABSEF-UHFFFAOYSA-N
     RDKit          3D

 23 25  0  0  0  0  0  0  0  0999 V2000
   15.7367    9.9565   13.3423 C   0  0  0  0  0  0  0  0  0  0  0  0
   15.4378    9.4336   11.9697 C   0  0  0  0  0  0  0  0  0  0  0  0
   14.6128    8.2986   11.8982 C   0  0  0  0  0  0  0  0  0  0  0  0
   14.1313    7.8355   10.6791 C   0  0  0  0  0  0  0  0  0  0  0  0
   13.2116    6.8632   10.6650 F   0  0  0  0  0  0  0  0  0  0  0  0
   14.4808    8.4575    9.5029 C   0  0  0  0  0  0  0  0  0  0  0  0
   15.3964    9.4988    9.5437 C   0  0  0  0  0  0  0  0  0  0  0  0
   15.8824    9.9995   10.7639 C   0  0  0  0  0  0  0  0  0  0  0  0
   16.8923   10.9661   10.6254 N   0  0  0  0  0  0  0  0  0  0  0  0
   17.3634   11.8696   11.5472 C   0  0  0  0  0  0  0  0  0  0  0  0
   16.7199   12.3850   12.4508 O   0  0  0  0  0  0  0  0  0  0  0  0
   18.7946   12.2413   11.4052 C   0  0  0  0  0  0  0  0  0  0  0  0
   19.3200   13.2939   12.1945 C   0  0  0  0  0  0  0  0  0  0  0  0
   20.6906   13.5977   12.1852 C   0  0  0  0  0  0  0  0  0  0  0  0
   21.2417   14.9111   13.1389 Cl  0  0  0  0  0  0  0  0  0  0  0  0
   21.5032   12.8664   11.3443 C   0  0  0  0  0  0  0  0  0  0  0  0
   20.9562   11.8317   10.5862 C   0  0  0  0  0  0  0  0  0  0  0  0
   19.6371   11.4725   10.6074 C   0  0  0  0  0  0  0  0  0  0  0  0
   21.9242   11.3288    9.7468 N   0  0  0  0  0  0  0  0  0  0  0  0
   23.0646   12.1004    9.8664 C   0  0  0  0  0  0  0  0  0  0  0  0
   24.0172   12.0531    9.1185 O   0  0  0  0  0  0  0  0  0  0  0  0
   22.8469   12.9687   10.9466 N   0  0  0  0  0  0  0  0  0  0  0  0
   23.9068   13.6881   11.5706 C   0  0  0  0  0  0  0  0  0  0  0  0
  1  2  1  0
  2  3  2  0
  3  4  1  0
  4  5  1  0
  4  6  2  0
  6  7  1  0
  7  8  2  0
  8  9  1  0
  9 10  1  0
 10 11  2  0
 10 12  1  0
 12 13  2  0
 13 14  1  0
 14 15  1  0
 14 16  2  0
 16 17  1  0
 17 18  2  0
 17 19  1  0
 19 20  1  0
 20 21  2  0
 20 22  1  0
 22 23  1  0
  8  2  1  0
 18 12  1  0
 22 16  1  0
M  END
>  <ref_pdb>  (144) 
c0270a

>  <inchikey>  (144) 
UDTBBONDMABSEF-UHFFFAOYSA-N

>  <original ID>  (144) 
UDTBBONDMABSEF-UHFFFAOYSA-N

>  <generation_date>  (144) 
None

>  <alias>  (144) 
None

>  <tags>  (144) 
[]

>  <ref_mols>  (144) 
c0692a,c0894a

>  <ref_url>  (144) 
None

>  <submitter_name>  (144) 
None

>  <exports>  (144) 
nan

>  <original SMILES>  (144) 
Cc1cc(F)ccc1NC(=O)c1cc(Cl)c2c(c1)[nH]c(=O)n2C

>  <method>  (144) 
None

>  <submitter_email>  (144) 
None

>  <HIPPO ID>  (144) 
92072

$$$$
VDHMZVVQNYXQBI-UHFFFAOYSA-N
     RDKit          3D

 24 26  0  0  0  0  0  0  0  0999 V2000
   23.9456   13.6230   11.6645 C   0  0  0  0  0  0  0  0  0  0  0  0
   22.8690   12.9298   11.0383 N   0  0  0  0  0  0  0  0  0  0  0  0
   23.0703   11.9956   10.0144 C   0  0  0  0  0  0  0  0  0  0  0  0
   24.0674   11.8095    9.3560 O   0  0  0  0  0  0  0  0  0  0  0  0
   21.8810   11.3175    9.8483 N   0  0  0  0  0  0  0  0  0  0  0  0
   20.9319   11.8904   10.6579 C   0  0  0  0  0  0  0  0  0  0  0  0
   19.6078   11.5749   10.6889 C   0  0  0  0  0  0  0  0  0  0  0  0
   18.8011   12.3733   11.4956 C   0  0  0  0  0  0  0  0  0  0  0  0
   17.3722   12.0244   11.6607 C   0  0  0  0  0  0  0  0  0  0  0  0
   16.7202   12.5615   12.5422 O   0  0  0  0  0  0  0  0  0  0  0  0
   16.9001   11.1142   10.7527 N   0  0  0  0  0  0  0  0  0  0  0  0
   15.9141   10.1380   10.9287 C   0  0  0  0  0  0  0  0  0  0  0  0
   15.3482    9.7044    9.7348 C   0  0  0  0  0  0  0  0  0  0  0  0
   14.4523    8.6520    9.7334 C   0  0  0  0  0  0  0  0  0  0  0  0
   13.4682    8.5099    8.3605 Cl  0  0  0  0  0  0  0  0  0  0  0  0
   14.2609    7.8843   10.8725 C   0  0  0  0  0  0  0  0  0  0  0  0
   13.2807    6.4648   10.8731 Cl  0  0  0  0  0  0  0  0  0  0  0  0
   14.7922    8.3291   12.0779 C   0  0  0  0  0  0  0  0  0  0  0  0
   15.5466    9.5059   12.1253 C   0  0  0  0  0  0  0  0  0  0  0  0
   16.0110   10.0151   13.6991 Cl  0  0  0  0  0  0  0  0  0  0  0  0
   19.3563   13.4205   12.2668 C   0  0  0  0  0  0  0  0  0  0  0  0
   20.7329   13.6830   12.2387 C   0  0  0  0  0  0  0  0  0  0  0  0
   21.3383   14.9832   13.1762 Cl  0  0  0  0  0  0  0  0  0  0  0  0
   21.5157   12.9107   11.4067 C   0  0  0  0  0  0  0  0  0  0  0  0
  1  2  1  0
  2  3  1  0
  3  4  2  0
  3  5  1  0
  5  6  1  0
  6  7  2  0
  7  8  1  0
  8  9  1  0
  9 10  2  0
  9 11  1  0
 11 12  1  0
 12 13  2  0
 13 14  1  0
 14 15  1  0
 14 16  2  0
 16 17  1  0
 16 18  1  0
 18 19  2  0
 19 20  1  0
  8 21  2  0
 21 22  1  0
 22 23  1  0
 22 24  2  0
 24  2  1  0
 24  6  1  0
 19 12  1  0
M  END
>  <ref_pdb>  (145) 
c0270a

>  <inchikey>  (145) 
VDHMZVVQNYXQBI-UHFFFAOYSA-N

>  <original ID>  (145) 
VDHMZVVQNYXQBI-UHFFFAOYSA-N

>  <generation_date>  (145) 
None

>  <alias>  (145) 
None

>  <tags>  (145) 
[]

>  <ref_mols>  (145) 
c0692a,c0894a

>  <ref_url>  (145) 
None

>  <submitter_name>  (145) 
None

>  <exports>  (145) 
nan

>  <original SMILES>  (145) 
Cn1c(=O)[nH]c2cc(C(=O)Nc3cc(Cl)c(Cl)cc3Cl)cc(Cl)c21

>  <method>  (145) 
None

>  <submitter_email>  (145) 
None

>  <HIPPO ID>  (145) 
92281

$$$$
SHKHSZXMVQYLEL-UHFFFAOYSA-N
     RDKit          3D

 24 26  0  0  0  0  0  0  0  0999 V2000
   24.2854   13.7017   11.5658 C   0  0  0  0  0  0  0  0  0  0  0  0
   23.1941   13.0627   10.9092 N   0  0  0  0  0  0  0  0  0  0  0  0
   23.3865   12.1948    9.8225 C   0  0  0  0  0  0  0  0  0  0  0  0
   24.3669   12.0900    9.1160 O   0  0  0  0  0  0  0  0  0  0  0  0
   22.2067   11.4899    9.6668 N   0  0  0  0  0  0  0  0  0  0  0  0
   21.2670   11.9898   10.5437 C   0  0  0  0  0  0  0  0  0  0  0  0
   19.9447   11.6497   10.6143 C   0  0  0  0  0  0  0  0  0  0  0  0
   19.1475   12.4251   11.4558 C   0  0  0  0  0  0  0  0  0  0  0  0
   17.7184   12.1006   11.6551 C   0  0  0  0  0  0  0  0  0  0  0  0
   17.1056   12.6323   12.5745 O   0  0  0  0  0  0  0  0  0  0  0  0
   17.1933   11.1818   10.7915 N   0  0  0  0  0  0  0  0  0  0  0  0
   16.1516   10.2804   11.0375 C   0  0  0  0  0  0  0  0  0  0  0  0
   15.6230    9.7066    9.8891 C   0  0  0  0  0  0  0  0  0  0  0  0
   14.6627    8.7257   10.0042 C   0  0  0  0  0  0  0  0  0  0  0  0
   13.5327    8.4728    8.5595 Br  0  0  0  0  0  0  0  0  0  0  0  0
   14.3782    8.1302   11.2144 C   0  0  0  0  0  0  0  0  0  0  0  0
   14.8494    8.7562   12.3504 C   0  0  0  0  0  0  0  0  0  0  0  0
   14.4471    8.2736   13.5662 O   0  0  0  0  0  0  0  0  0  0  0  0
   15.6469    9.9062   12.2938 C   0  0  0  0  0  0  0  0  0  0  0  0
   16.0272   10.4900   13.5241 N   0  0  0  0  0  0  0  0  0  0  0  0
   19.7127   13.4494   12.2465 C   0  0  0  0  0  0  0  0  0  0  0  0
   21.0830   13.7223   12.1988 C   0  0  0  0  0  0  0  0  0  0  0  0
   21.6774   15.0085   13.1614 Cl  0  0  0  0  0  0  0  0  0  0  0  0
   21.8536   12.9915   11.3177 C   0  0  0  0  0  0  0  0  0  0  0  0
  1  2  1  0
  2  3  1  0
  3  4  2  0
  3  5  1  0
  5  6  1  0
  6  7  2  0
  7  8  1  0
  8  9  1  0
  9 10  2  0
  9 11  1  0
 11 12  1  0
 12 13  2  0
 13 14  1  0
 14 15  1  0
 14 16  2  0
 16 17  1  0
 17 18  1  0
 17 19  2  0
 19 20  1  0
  8 21  2  0
 21 22  1  0
 22 23  1  0
 22 24  2  0
 24  2  1  0
 24  6  1  0
 19 12  1  0
M  END
>  <ref_pdb>  (146) 
c0270a

>  <inchikey>  (146) 
SHKHSZXMVQYLEL-UHFFFAOYSA-N

>  <original ID>  (146) 
SHKHSZXMVQYLEL-UHFFFAOYSA-N

>  <generation_date>  (146) 
None

>  <alias>  (146) 
None

>  <tags>  (146) 
[]

>  <ref_mols>  (146) 
c0692a,c0894a

>  <ref_url>  (146) 
None

>  <submitter_name>  (146) 
None

>  <exports>  (146) 
nan

>  <original SMILES>  (146) 
Cn1c(=O)[nH]c2cc(C(=O)Nc3cc(Br)cc(O)c3N)cc(Cl)c21

>  <method>  (146) 
None

>  <submitter_email>  (146) 
None

>  <HIPPO ID>  (146) 
92405

$$$$
MVZXOZDFKIMVRD-UHFFFAOYSA-N
     RDKit          3D

 24 26  0  0  0  0  0  0  0  0999 V2000
   23.9799   13.6821   11.1078 C   0  0  0  0  0  0  0  0  0  0  0  0
   22.8961   12.7980   10.8599 N   0  0  0  0  0  0  0  0  0  0  0  0
   22.9791   11.8637    9.8135 C   0  0  0  0  0  0  0  0  0  0  0  0
   23.8522   11.7528    8.9818 O   0  0  0  0  0  0  0  0  0  0  0  0
   21.7982   11.1511    9.8236 N   0  0  0  0  0  0  0  0  0  0  0  0
   20.9181   11.7938   10.6561 C   0  0  0  0  0  0  0  0  0  0  0  0
   19.5862   11.5296   10.7331 C   0  0  0  0  0  0  0  0  0  0  0  0
   18.8319   12.3950   11.5145 C   0  0  0  0  0  0  0  0  0  0  0  0
   17.4127   12.0588   11.7448 C   0  0  0  0  0  0  0  0  0  0  0  0
   16.8503   12.4863   12.7449 O   0  0  0  0  0  0  0  0  0  0  0  0
   16.8563   11.2374   10.7981 N   0  0  0  0  0  0  0  0  0  0  0  0
   15.8971   10.2335   10.9828 C   0  0  0  0  0  0  0  0  0  0  0  0
   15.3374    9.7602    9.8020 C   0  0  0  0  0  0  0  0  0  0  0  0
   14.4867    8.6713    9.8274 C   0  0  0  0  0  0  0  0  0  0  0  0
   13.5131    8.4726    8.4493 Cl  0  0  0  0  0  0  0  0  0  0  0  0
   14.3523    7.9166   10.9854 C   0  0  0  0  0  0  0  0  0  0  0  0
   13.3114    6.1008   11.0585 I   0  0  0  0  0  0  0  0  0  0  0  0
   14.8842    8.4134   12.1773 C   0  0  0  0  0  0  0  0  0  0  0  0
   15.5501    9.6452   12.2107 C   0  0  0  0  0  0  0  0  0  0  0  0
   16.0586   10.0823   13.4438 N   0  0  0  0  0  0  0  0  0  0  0  0
   19.4410   13.4673   12.2040 C   0  0  0  0  0  0  0  0  0  0  0  0
   20.8239   13.6992   12.0983 C   0  0  0  0  0  0  0  0  0  0  0  0
   21.4818   15.0590   12.9083 Cl  0  0  0  0  0  0  0  0  0  0  0  0
   21.5632   12.8477   11.3022 C   0  0  0  0  0  0  0  0  0  0  0  0
  1  2  1  0
  2  3  1  0
  3  4  2  0
  3  5  1  0
  5  6  1  0
  6  7  2  0
  7  8  1  0
  8  9  1  0
  9 10  2  0
  9 11  1  0
 11 12  1  0
 12 13  2  0
 13 14  1  0
 14 15  1  0
 14 16  2  0
 16 17  1  0
 16 18  1  0
 18 19  2  0
 19 20  1  0
  8 21  2  0
 21 22  1  0
 22 23  1  0
 22 24  2  0
 24  2  1  0
 24  6  1  0
 19 12  1  0
M  END
>  <ref_pdb>  (147) 
c0270a

>  <inchikey>  (147) 
MVZXOZDFKIMVRD-UHFFFAOYSA-N

>  <original ID>  (147) 
MVZXOZDFKIMVRD-UHFFFAOYSA-N

>  <generation_date>  (147) 
None

>  <alias>  (147) 
None

>  <tags>  (147) 
[]

>  <ref_mols>  (147) 
c0692a,c0894a

>  <ref_url>  (147) 
None

>  <submitter_name>  (147) 
None

>  <exports>  (147) 
nan

>  <original SMILES>  (147) 
Cn1c(=O)[nH]c2cc(C(=O)Nc3cc(Cl)c(I)cc3N)cc(Cl)c21

>  <method>  (147) 
None

>  <submitter_email>  (147) 
None

>  <HIPPO ID>  (147) 
92524

$$$$
YKQCRTQSGURNEG-UHFFFAOYSA-N
     RDKit          3D

 24 26  0  0  0  0  0  0  0  0999 V2000
   24.2855   13.6942   11.5313 C   0  0  0  0  0  0  0  0  0  0  0  0
   23.1699   13.0719   10.8995 N   0  0  0  0  0  0  0  0  0  0  0  0
   23.3342   12.1714    9.8341 C   0  0  0  0  0  0  0  0  0  0  0  0
   24.3069   12.0253    9.1249 O   0  0  0  0  0  0  0  0  0  0  0  0
   22.1392   11.4864    9.7083 N   0  0  0  0  0  0  0  0  0  0  0  0
   21.2211   12.0246   10.5842 C   0  0  0  0  0  0  0  0  0  0  0  0
   19.8967   11.7047   10.6842 C   0  0  0  0  0  0  0  0  0  0  0  0
   19.1267   12.4943   11.5412 C   0  0  0  0  0  0  0  0  0  0  0  0
   17.7049   12.1656   11.7912 C   0  0  0  0  0  0  0  0  0  0  0  0
   17.1164   12.6738   12.7379 O   0  0  0  0  0  0  0  0  0  0  0  0
   17.1662   11.2605   10.9264 N   0  0  0  0  0  0  0  0  0  0  0  0
   16.1832   10.3046   11.1936 C   0  0  0  0  0  0  0  0  0  0  0  0
   15.6674    9.7335   10.0500 C   0  0  0  0  0  0  0  0  0  0  0  0
   14.7412    8.7217   10.1625 C   0  0  0  0  0  0  0  0  0  0  0  0
   13.5162    8.5977    8.5872 I   0  0  0  0  0  0  0  0  0  0  0  0
   14.5163    8.0810   11.3676 C   0  0  0  0  0  0  0  0  0  0  0  0
   13.5416    6.6586   11.4980 Cl  0  0  0  0  0  0  0  0  0  0  0  0
   15.0196    8.6656   12.5226 C   0  0  0  0  0  0  0  0  0  0  0  0
   15.7436    9.8642   12.4563 C   0  0  0  0  0  0  0  0  0  0  0  0
   16.2016   10.4164   13.6611 N   0  0  0  0  0  0  0  0  0  0  0  0
   19.7184   13.5213   12.3050 C   0  0  0  0  0  0  0  0  0  0  0  0
   21.0899   13.7807   12.2183 C   0  0  0  0  0  0  0  0  0  0  0  0
   21.7189   15.0719   13.1514 Cl  0  0  0  0  0  0  0  0  0  0  0  0
   21.8351   13.0295   11.3312 C   0  0  0  0  0  0  0  0  0  0  0  0
  1  2  1  0
  2  3  1  0
  3  4  2  0
  3  5  1  0
  5  6  1  0
  6  7  2  0
  7  8  1  0
  8  9  1  0
  9 10  2  0
  9 11  1  0
 11 12  1  0
 12 13  2  0
 13 14  1  0
 14 15  1  0
 14 16  2  0
 16 17  1  0
 16 18  1  0
 18 19  2  0
 19 20  1  0
  8 21  2  0
 21 22  1  0
 22 23  1  0
 22 24  2  0
 24  2  1  0
 24  6  1  0
 19 12  1  0
M  END
>  <ref_pdb>  (148) 
c0270a

>  <inchikey>  (148) 
YKQCRTQSGURNEG-UHFFFAOYSA-N

>  <original ID>  (148) 
YKQCRTQSGURNEG-UHFFFAOYSA-N

>  <generation_date>  (148) 
None

>  <alias>  (148) 
None

>  <tags>  (148) 
[]

>  <ref_mols>  (148) 
c0692a,c0894a

>  <ref_url>  (148) 
None

>  <submitter_name>  (148) 
None

>  <exports>  (148) 
['/opt/xchem-fragalysis-2/maxwin/CHIKV_HIPPO/hippo_prod/CHIKV_prod11_recipes/Recipe_1GERJCJ_poses.sdf']

>  <original SMILES>  (148) 
Cn1c(=O)[nH]c2cc(C(=O)Nc3cc(I)c(Cl)cc3N)cc(Cl)c21

>  <method>  (148) 
None

>  <submitter_email>  (148) 
None

>  <HIPPO ID>  (148) 
92549

$$$$
AGJITVDMQYSHPF-UHFFFAOYSA-N
     RDKit          3D

 24 26  0  0  0  0  0  0  0  0999 V2000
   14.2908    9.0125   14.3683 C   0  0  0  0  0  0  0  0  0  0  0  0
   14.2649    8.0823   13.2840 O   0  0  0  0  0  0  0  0  0  0  0  0
   14.7489    8.5550   12.0938 C   0  0  0  0  0  0  0  0  0  0  0  0
   14.2394    7.9575   10.9418 C   0  0  0  0  0  0  0  0  0  0  0  0
   14.5149    8.5214    9.7063 C   0  0  0  0  0  0  0  0  0  0  0  0
   13.8139    8.1396    8.6354 F   0  0  0  0  0  0  0  0  0  0  0  0
   15.4422    9.5385    9.5811 C   0  0  0  0  0  0  0  0  0  0  0  0
   16.0307   10.0665   10.7241 C   0  0  0  0  0  0  0  0  0  0  0  0
   17.0596   10.9993   10.5560 N   0  0  0  0  0  0  0  0  0  0  0  0
   17.5778   11.8051   11.5459 C   0  0  0  0  0  0  0  0  0  0  0  0
   16.9920   12.1525   12.5657 O   0  0  0  0  0  0  0  0  0  0  0  0
   18.9848   12.2332   11.3687 C   0  0  0  0  0  0  0  0  0  0  0  0
   19.4881   13.2776   12.1797 C   0  0  0  0  0  0  0  0  0  0  0  0
   20.8494   13.6102   12.1697 C   0  0  0  0  0  0  0  0  0  0  0  0
   21.3723   14.9135   13.1527 Cl  0  0  0  0  0  0  0  0  0  0  0  0
   21.6738   12.9172   11.3066 C   0  0  0  0  0  0  0  0  0  0  0  0
   21.1477   11.8970   10.5135 C   0  0  0  0  0  0  0  0  0  0  0  0
   19.8360   11.5051   10.5412 C   0  0  0  0  0  0  0  0  0  0  0  0
   22.1301   11.4451    9.6568 N   0  0  0  0  0  0  0  0  0  0  0  0
   23.2679   12.2119    9.8289 C   0  0  0  0  0  0  0  0  0  0  0  0
   24.2512   12.1772    9.1186 O   0  0  0  0  0  0  0  0  0  0  0  0
   23.0195   13.0513   10.9268 N   0  0  0  0  0  0  0  0  0  0  0  0
   24.0693   13.7235   11.6173 C   0  0  0  0  0  0  0  0  0  0  0  0
   15.6503    9.6056   11.9824 C   0  0  0  0  0  0  0  0  0  0  0  0
  1  2  1  0
  2  3  1  0
  3  4  2  0
  4  5  1  0
  5  6  1  0
  5  7  2  0
  7  8  1  0
  8  9  1  0
  9 10  1  0
 10 11  2  0
 10 12  1  0
 12 13  2  0
 13 14  1  0
 14 15  1  0
 14 16  2  0
 16 17  1  0
 17 18  2  0
 17 19  1  0
 19 20  1  0
 20 21  2  0
 20 22  1  0
 22 23  1  0
  8 24  2  0
 24  3  1  0
 18 12  1  0
 22 16  1  0
M  END
>  <ref_pdb>  (149) 
c0270a

>  <inchikey>  (149) 
AGJITVDMQYSHPF-UHFFFAOYSA-N

>  <original ID>  (149) 
AGJITVDMQYSHPF-UHFFFAOYSA-N

>  <generation_date>  (149) 
None

>  <alias>  (149) 
None

>  <tags>  (149) 
[]

>  <ref_mols>  (149) 
c0692a,c0894a

>  <ref_url>  (149) 
None

>  <submitter_name>  (149) 
None

>  <exports>  (149) 
nan

>  <original SMILES>  (149) 
COc1cc(F)cc(NC(=O)c2cc(Cl)c3c(c2)[nH]c(=O)n3C)c1

>  <method>  (149) 
None

>  <submitter_email>  (149) 
None

>  <HIPPO ID>  (149) 
92585

$$$$
HUMKDTXNDPRYGV-UHFFFAOYSA-N
     RDKit          3D

 24 26  0  0  0  0  0  0  0  0999 V2000
   13.2844    5.9873   10.0711 C   0  0  0  0  0  0  0  0  0  0  0  0
   13.3879    6.9084   11.1394 O   0  0  0  0  0  0  0  0  0  0  0  0
   14.2828    7.9200   10.9535 C   0  0  0  0  0  0  0  0  0  0  0  0
   14.6820    8.4276    9.7314 C   0  0  0  0  0  0  0  0  0  0  0  0
   15.5914    9.4745    9.6920 C   0  0  0  0  0  0  0  0  0  0  0  0
   16.0398   10.0972   10.8657 C   0  0  0  0  0  0  0  0  0  0  0  0
   17.0839   11.0099   10.6538 N   0  0  0  0  0  0  0  0  0  0  0  0
   17.5316   12.0107   11.4764 C   0  0  0  0  0  0  0  0  0  0  0  0
   16.8354   12.6866   12.2202 O   0  0  0  0  0  0  0  0  0  0  0  0
   18.9844   12.3097   11.3841 C   0  0  0  0  0  0  0  0  0  0  0  0
   19.5160   13.3387   12.1969 C   0  0  0  0  0  0  0  0  0  0  0  0
   20.8879   13.6250   12.2017 C   0  0  0  0  0  0  0  0  0  0  0  0
   21.4414   14.9185   13.1806 Cl  0  0  0  0  0  0  0  0  0  0  0  0
   21.6967   12.9073   11.3441 C   0  0  0  0  0  0  0  0  0  0  0  0
   21.1472   11.8963   10.5565 C   0  0  0  0  0  0  0  0  0  0  0  0
   19.8258   11.5405   10.5811 C   0  0  0  0  0  0  0  0  0  0  0  0
   22.1139   11.4249    9.6922 N   0  0  0  0  0  0  0  0  0  0  0  0
   23.2648   12.1763    9.8517 C   0  0  0  0  0  0  0  0  0  0  0  0
   24.2349   12.1352    9.1237 O   0  0  0  0  0  0  0  0  0  0  0  0
   23.0426   13.0138   10.9562 N   0  0  0  0  0  0  0  0  0  0  0  0
   24.1013   13.7014   11.6167 C   0  0  0  0  0  0  0  0  0  0  0  0
   15.5315    9.6631   12.0953 C   0  0  0  0  0  0  0  0  0  0  0  0
   15.8921   10.3903   13.8052 Br  0  0  0  0  0  0  0  0  0  0  0  0
   14.7093    8.5368   12.1258 C   0  0  0  0  0  0  0  0  0  0  0  0
  1  2  1  0
  2  3  1  0
  3  4  2  0
  4  5  1  0
  5  6  2  0
  6  7  1  0
  7  8  1  0
  8  9  2  0
  8 10  1  0
 10 11  2  0
 11 12  1  0
 12 13  1  0
 12 14  2  0
 14 15  1  0
 15 16  2  0
 15 17  1  0
 17 18  1  0
 18 19  2  0
 18 20  1  0
 20 21  1  0
  6 22  1  0
 22 23  1  0
 22 24  2  0
 24  3  1  0
 16 10  1  0
 20 14  1  0
M  END
>  <ref_pdb>  (150) 
c0270a

>  <inchikey>  (150) 
HUMKDTXNDPRYGV-UHFFFAOYSA-N

>  <original ID>  (150) 
HUMKDTXNDPRYGV-UHFFFAOYSA-N

>  <generation_date>  (150) 
None

>  <alias>  (150) 
None

>  <tags>  (150) 
[]

>  <ref_mols>  (150) 
c0692a,c0894a

>  <ref_url>  (150) 
None

>  <submitter_name>  (150) 
None

>  <exports>  (150) 
nan

>  <original SMILES>  (150) 
COc1ccc(NC(=O)c2cc(Cl)c3c(c2)[nH]c(=O)n3C)c(Br)c1

>  <method>  (150) 
None

>  <submitter_email>  (150) 
None

>  <HIPPO ID>  (150) 
92646

$$$$
YBRAGLUYERRLSZ-UHFFFAOYSA-N
     RDKit          3D

 24 27  0  0  0  0  0  0  0  0999 V2000
   23.9304   13.7073   11.5879 C   0  0  0  0  0  0  0  0  0  0  0  0
   22.8740   13.0124   10.9307 N   0  0  0  0  0  0  0  0  0  0  0  0
   23.1082   12.1509    9.8482 C   0  0  0  0  0  0  0  0  0  0  0  0
   24.0709   12.1099    9.1124 O   0  0  0  0  0  0  0  0  0  0  0  0
   21.9749   11.3723    9.7133 N   0  0  0  0  0  0  0  0  0  0  0  0
   20.9977   11.8548   10.5550 C   0  0  0  0  0  0  0  0  0  0  0  0
   19.6848   11.4729   10.5811 C   0  0  0  0  0  0  0  0  0  0  0  0
   18.8383   12.2125   11.4014 C   0  0  0  0  0  0  0  0  0  0  0  0
   17.4395   11.7639   11.5943 C   0  0  0  0  0  0  0  0  0  0  0  0
   16.8744   12.0752   12.6358 O   0  0  0  0  0  0  0  0  0  0  0  0
   16.9167   10.9781   10.5906 N   0  0  0  0  0  0  0  0  0  0  0  0
   15.9343    9.9907   10.7490 C   0  0  0  0  0  0  0  0  0  0  0  0
   15.3918    9.4454    9.5837 C   0  0  0  0  0  0  0  0  0  0  0  0
   14.5074    8.3687    9.6255 C   0  0  0  0  0  0  0  0  0  0  0  0
   14.2623    7.8104   10.8760 C   0  0  0  0  0  0  0  0  0  0  0  0
   13.4936    6.7439   11.2615 N   0  0  0  0  0  0  0  0  0  0  0  0
   13.4399    6.5672   12.5945 N   0  0  0  0  0  0  0  0  0  0  0  0
   14.2371    7.5256   13.0718 C   0  0  0  0  0  0  0  0  0  0  0  0
   14.7682    8.3449   12.0543 C   0  0  0  0  0  0  0  0  0  0  0  0
   15.5879    9.4801   12.0029 C   0  0  0  0  0  0  0  0  0  0  0  0
   19.3464   13.2679   12.1964 C   0  0  0  0  0  0  0  0  0  0  0  0
   20.7098   13.5994   12.1761 C   0  0  0  0  0  0  0  0  0  0  0  0
   21.2436   14.9143   13.1375 Cl  0  0  0  0  0  0  0  0  0  0  0  0
   21.5306   12.8895   11.3239 C   0  0  0  0  0  0  0  0  0  0  0  0
  1  2  1  0
  2  3  1  0
  3  4  2  0
  3  5  1  0
  5  6  1  0
  6  7  2  0
  7  8  1  0
  8  9  1  0
  9 10  2  0
  9 11  1  0
 11 12  1  0
 12 13  2  0
 13 14  1  0
 14 15  2  0
 15 16  1  0
 16 17  1  0
 17 18  2  0
 18 19  1  0
 19 20  2  0
  8 21  2  0
 21 22  1  0
 22 23  1  0
 22 24  2  0
 24  2  1  0
 24  6  1  0
 20 12  1  0
 19 15  1  0
M  END
>  <ref_pdb>  (151) 
c0270a

>  <inchikey>  (151) 
YBRAGLUYERRLSZ-UHFFFAOYSA-N

>  <original ID>  (151) 
YBRAGLUYERRLSZ-UHFFFAOYSA-N

>  <generation_date>  (151) 
None

>  <alias>  (151) 
None

>  <tags>  (151) 
[]

>  <ref_mols>  (151) 
c0692a,c0894a

>  <ref_url>  (151) 
None

>  <submitter_name>  (151) 
None

>  <exports>  (151) 
nan

>  <original SMILES>  (151) 
Cn1c(=O)[nH]c2cc(C(=O)Nc3ccc4[nH]ncc4c3)cc(Cl)c21

>  <method>  (151) 
None

>  <submitter_email>  (151) 
None

>  <HIPPO ID>  (151) 
92761

$$$$
LAJKLDOSQYKRGK-UHFFFAOYSA-N
     RDKit          3D

 24 26  0  0  0  0  0  0  0  0999 V2000
   15.8771   10.2605   13.6404 C   0  0  0  0  0  0  0  0  0  0  0  0
   15.6108    9.6668   12.2931 C   0  0  0  0  0  0  0  0  0  0  0  0
   14.8157    8.5081   12.2715 C   0  0  0  0  0  0  0  0  0  0  0  0
   14.3109    8.0282   11.0764 C   0  0  0  0  0  0  0  0  0  0  0  0
   13.3917    7.0516   11.0973 F   0  0  0  0  0  0  0  0  0  0  0  0
   14.5878    8.7065    9.9111 C   0  0  0  0  0  0  0  0  0  0  0  0
   13.4742    8.5487    8.4458 Br  0  0  0  0  0  0  0  0  0  0  0  0
   15.5248    9.7120    9.8768 C   0  0  0  0  0  0  0  0  0  0  0  0
   16.0376   10.2099   11.0679 C   0  0  0  0  0  0  0  0  0  0  0  0
   17.0175   11.1830   10.8660 N   0  0  0  0  0  0  0  0  0  0  0  0
   17.5252   12.0987   11.7438 C   0  0  0  0  0  0  0  0  0  0  0  0
   16.9178   12.6385   12.6558 O   0  0  0  0  0  0  0  0  0  0  0  0
   18.9550   12.4244   11.5300 C   0  0  0  0  0  0  0  0  0  0  0  0
   19.5446   13.4667   12.2787 C   0  0  0  0  0  0  0  0  0  0  0  0
   20.9199   13.7273   12.1954 C   0  0  0  0  0  0  0  0  0  0  0  0
   21.5440   15.0417   13.0995 Cl  0  0  0  0  0  0  0  0  0  0  0  0
   21.6695   12.9589   11.3278 C   0  0  0  0  0  0  0  0  0  0  0  0
   21.0554   11.9285   10.6166 C   0  0  0  0  0  0  0  0  0  0  0  0
   19.7320   11.6130   10.7057 C   0  0  0  0  0  0  0  0  0  0  0  0
   21.9618   11.3707    9.7469 N   0  0  0  0  0  0  0  0  0  0  0  0
   23.1297   12.1052    9.7950 C   0  0  0  0  0  0  0  0  0  0  0  0
   24.0432   12.0018    9.0064 O   0  0  0  0  0  0  0  0  0  0  0  0
   22.9932   13.0087   10.8610 N   0  0  0  0  0  0  0  0  0  0  0  0
   24.1177   13.6862   11.4143 C   0  0  0  0  0  0  0  0  0  0  0  0
  1  2  1  0
  2  3  2  0
  3  4  1  0
  4  5  1  0
  4  6  2  0
  6  7  1  0
  6  8  1  0
  8  9  2  0
  9 10  1  0
 10 11  1  0
 11 12  2  0
 11 13  1  0
 13 14  2  0
 14 15  1  0
 15 16  1  0
 15 17  2  0
 17 18  1  0
 18 19  2  0
 18 20  1  0
 20 21  1  0
 21 22  2  0
 21 23  1  0
 23 24  1  0
  9  2  1  0
 19 13  1  0
 23 17  1  0
M  END
>  <ref_pdb>  (152) 
c0270a

>  <inchikey>  (152) 
LAJKLDOSQYKRGK-UHFFFAOYSA-N

>  <original ID>  (152) 
LAJKLDOSQYKRGK-UHFFFAOYSA-N

>  <generation_date>  (152) 
None

>  <alias>  (152) 
None

>  <tags>  (152) 
[]

>  <ref_mols>  (152) 
c0692a,c0894a

>  <ref_url>  (152) 
None

>  <submitter_name>  (152) 
None

>  <exports>  (152) 
nan

>  <original SMILES>  (152) 
Cc1cc(F)c(Br)cc1NC(=O)c1cc(Cl)c2c(c1)[nH]c(=O)n2C

>  <method>  (152) 
None

>  <submitter_email>  (152) 
None

>  <HIPPO ID>  (152) 
92777

$$$$
XAIYILNYGOPPFC-UHFFFAOYSA-N
     RDKit          3D

 24 26  0  0  0  0  0  0  0  0999 V2000
   24.0081   13.6925   11.6855 C   0  0  0  0  0  0  0  0  0  0  0  0
   22.9712   12.9880   11.0078 N   0  0  0  0  0  0  0  0  0  0  0  0
   23.2228   12.1447    9.9149 C   0  0  0  0  0  0  0  0  0  0  0  0
   24.2177   12.0933    9.2222 O   0  0  0  0  0  0  0  0  0  0  0  0
   22.0723   11.3988    9.7229 N   0  0  0  0  0  0  0  0  0  0  0  0
   21.0850   11.8696   10.5647 C   0  0  0  0  0  0  0  0  0  0  0  0
   19.7635   11.5083   10.5656 C   0  0  0  0  0  0  0  0  0  0  0  0
   18.9049   12.2690   11.3580 C   0  0  0  0  0  0  0  0  0  0  0  0
   17.4537   11.9538   11.4352 C   0  0  0  0  0  0  0  0  0  0  0  0
   16.7421   12.6169   12.1771 O   0  0  0  0  0  0  0  0  0  0  0  0
   17.0143   10.9516   10.6033 N   0  0  0  0  0  0  0  0  0  0  0  0
   15.9708   10.0300   10.8204 C   0  0  0  0  0  0  0  0  0  0  0  0
   15.4833    9.4416    9.6472 C   0  0  0  0  0  0  0  0  0  0  0  0
   14.6064    8.3692    9.6949 C   0  0  0  0  0  0  0  0  0  0  0  0
   14.2735    7.8041   10.9173 C   0  0  0  0  0  0  0  0  0  0  0  0
   13.2063    6.2332   10.8607 Br  0  0  0  0  0  0  0  0  0  0  0  0
   14.7006    8.4079   12.1100 C   0  0  0  0  0  0  0  0  0  0  0  0
   14.1950    7.7502   13.6452 Cl  0  0  0  0  0  0  0  0  0  0  0  0
   15.5150    9.5581   12.0675 C   0  0  0  0  0  0  0  0  0  0  0  0
   16.0104   10.2623   13.5735 Cl  0  0  0  0  0  0  0  0  0  0  0  0
   19.4186   13.3037   12.1768 C   0  0  0  0  0  0  0  0  0  0  0  0
   20.7893   13.5983   12.2034 C   0  0  0  0  0  0  0  0  0  0  0  0
   21.3245   14.8936   13.1907 Cl  0  0  0  0  0  0  0  0  0  0  0  0
   21.6164   12.8821   11.3627 C   0  0  0  0  0  0  0  0  0  0  0  0
  1  2  1  0
  2  3  1  0
  3  4  2  0
  3  5  1  0
  5  6  1  0
  6  7  2  0
  7  8  1  0
  8  9  1  0
  9 10  2  0
  9 11  1  0
 11 12  1  0
 12 13  2  0
 13 14  1  0
 14 15  2  0
 15 16  1  0
 15 17  1  0
 17 18  1  0
 17 19  2  0
 19 20  1  0
  8 21  2  0
 21 22  1  0
 22 23  1  0
 22 24  2  0
 24  2  1  0
 24  6  1  0
 19 12  1  0
M  END
>  <ref_pdb>  (153) 
c0270a

>  <inchikey>  (153) 
XAIYILNYGOPPFC-UHFFFAOYSA-N

>  <original ID>  (153) 
XAIYILNYGOPPFC-UHFFFAOYSA-N

>  <generation_date>  (153) 
None

>  <alias>  (153) 
None

>  <tags>  (153) 
[]

>  <ref_mols>  (153) 
c0692a,c0894a

>  <ref_url>  (153) 
None

>  <submitter_name>  (153) 
None

>  <exports>  (153) 
nan

>  <original SMILES>  (153) 
Cn1c(=O)[nH]c2cc(C(=O)Nc3ccc(Br)c(Cl)c3Cl)cc(Cl)c21

>  <method>  (153) 
None

>  <submitter_email>  (153) 
None

>  <HIPPO ID>  (153) 
92892

$$$$
GNYDXEOSEGKLJK-UHFFFAOYSA-N
     RDKit          3D

 24 26  0  0  0  0  0  0  0  0999 V2000
   15.6793   10.5064   13.5607 C   0  0  0  0  0  0  0  0  0  0  0  0
   15.4433    9.7230   12.3080 C   0  0  0  0  0  0  0  0  0  0  0  0
   14.6501    8.5745   12.4253 C   0  0  0  0  0  0  0  0  0  0  0  0
   14.1012    8.2699   13.6103 F   0  0  0  0  0  0  0  0  0  0  0  0
   14.3354    7.7588   11.3476 C   0  0  0  0  0  0  0  0  0  0  0  0
   14.7432    8.1364   10.0865 C   0  0  0  0  0  0  0  0  0  0  0  0
   15.5229    9.2783    9.9168 C   0  0  0  0  0  0  0  0  0  0  0  0
   16.0095    9.5236    8.6372 N   0  0  0  0  0  0  0  0  0  0  0  0
   15.9495   10.0309   11.0367 C   0  0  0  0  0  0  0  0  0  0  0  0
   16.9905   10.9476   10.7652 N   0  0  0  0  0  0  0  0  0  0  0  0
   17.4608   11.9818   11.5319 C   0  0  0  0  0  0  0  0  0  0  0  0
   16.7899   12.6663   12.2926 O   0  0  0  0  0  0  0  0  0  0  0  0
   18.9098   12.2941   11.3963 C   0  0  0  0  0  0  0  0  0  0  0  0
   19.4483   13.3332   12.1957 C   0  0  0  0  0  0  0  0  0  0  0  0
   20.8203   13.6217   12.1944 C   0  0  0  0  0  0  0  0  0  0  0  0
   21.3773   14.9204   13.1645 Cl  0  0  0  0  0  0  0  0  0  0  0  0
   21.6269   12.8948   11.3447 C   0  0  0  0  0  0  0  0  0  0  0  0
   21.0731   11.8782   10.5668 C   0  0  0  0  0  0  0  0  0  0  0  0
   19.7489   11.5253   10.5916 C   0  0  0  0  0  0  0  0  0  0  0  0
   22.0419   11.3907    9.7142 N   0  0  0  0  0  0  0  0  0  0  0  0
   23.1964   12.1393    9.8669 C   0  0  0  0  0  0  0  0  0  0  0  0
   24.1691   12.0851    9.1437 O   0  0  0  0  0  0  0  0  0  0  0  0
   22.9741   12.9918   10.9593 N   0  0  0  0  0  0  0  0  0  0  0  0
   24.0339   13.6863   11.6115 C   0  0  0  0  0  0  0  0  0  0  0  0
  1  2  1  0
  2  3  2  0
  3  4  1  0
  3  5  1  0
  5  6  2  0
  6  7  1  0
  7  8  1  0
  7  9  2  0
  9 10  1  0
 10 11  1  0
 11 12  2  0
 11 13  1  0
 13 14  2  0
 14 15  1  0
 15 16  1  0
 15 17  2  0
 17 18  1  0
 18 19  2  0
 18 20  1  0
 20 21  1  0
 21 22  2  0
 21 23  1  0
 23 24  1  0
  9  2  1  0
 19 13  1  0
 23 17  1  0
M  END
>  <ref_pdb>  (154) 
c0270a

>  <inchikey>  (154) 
GNYDXEOSEGKLJK-UHFFFAOYSA-N

>  <original ID>  (154) 
GNYDXEOSEGKLJK-UHFFFAOYSA-N

>  <generation_date>  (154) 
None

>  <alias>  (154) 
None

>  <tags>  (154) 
[]

>  <ref_mols>  (154) 
c0692a,c0894a

>  <ref_url>  (154) 
None

>  <submitter_name>  (154) 
None

>  <exports>  (154) 
['/opt/xchem-fragalysis-2/maxwin/CHIKV_HIPPO/hippo_prod/CHIKV_prod11_recipes/Recipe_1GERJCJ_poses.sdf']

>  <original SMILES>  (154) 
Cc1c(F)ccc(N)c1NC(=O)c1cc(Cl)c2c(c1)[nH]c(=O)n2C

>  <method>  (154) 
None

>  <submitter_email>  (154) 
None

>  <HIPPO ID>  (154) 
92932

$$$$
SXBQTDXZGQIXJM-UHFFFAOYSA-N
     RDKit          3D

 24 26  0  0  0  0  0  0  0  0999 V2000
   16.5999   12.6515   11.9746 O   0  0  0  0  0  0  0  0  0  0  0  0
   17.3721   11.9479   11.3324 C   0  0  0  0  0  0  0  0  0  0  0  0
   16.9761   10.8652   10.5819 N   0  0  0  0  0  0  0  0  0  0  0  0
   15.9644    9.9336   10.8998 C   0  0  0  0  0  0  0  0  0  0  0  0
   15.5415    9.1239    9.8394 C   0  0  0  0  0  0  0  0  0  0  0  0
   15.9997    9.3700    8.6078 F   0  0  0  0  0  0  0  0  0  0  0  0
   14.6912    8.0417   10.0211 C   0  0  0  0  0  0  0  0  0  0  0  0
   14.3149    7.6807   11.3016 C   0  0  0  0  0  0  0  0  0  0  0  0
   14.6885    8.4896   12.3725 C   0  0  0  0  0  0  0  0  0  0  0  0
   15.4485    9.6550   12.1696 C   0  0  0  0  0  0  0  0  0  0  0  0
   15.6996   10.4643   13.3696 C   0  0  0  0  0  0  0  0  0  0  0  0
   16.7744   10.7731   13.8391 O   0  0  0  0  0  0  0  0  0  0  0  0
   14.5346   10.8279   13.9363 O   0  0  0  0  0  0  0  0  0  0  0  0
   18.8234   12.2910   11.2864 C   0  0  0  0  0  0  0  0  0  0  0  0
   19.2660   13.3883   12.0380 C   0  0  0  0  0  0  0  0  0  0  0  0
   20.6186   13.7249   12.0460 C   0  0  0  0  0  0  0  0  0  0  0  0
   21.2334   15.0411   12.9350 Cl  0  0  0  0  0  0  0  0  0  0  0  0
   21.5417   12.9997   11.2805 C   0  0  0  0  0  0  0  0  0  0  0  0
   22.8820   13.1859   11.0392 N   0  0  0  0  0  0  0  0  0  0  0  0
   23.2147   12.2460   10.1968 C   0  0  0  0  0  0  0  0  0  0  0  0
   24.4126   12.1466    9.6681 O   0  0  0  0  0  0  0  0  0  0  0  0
   22.1730   11.4268    9.9017 N   0  0  0  0  0  0  0  0  0  0  0  0
   21.0735   11.8945   10.5746 C   0  0  0  0  0  0  0  0  0  0  0  0
   19.7358   11.4949   10.5708 C   0  0  0  0  0  0  0  0  0  0  0  0
  1  2  2  0
  2  3  1  0
  3  4  1  0
  4  5  2  0
  5  6  1  0
  5  7  1  0
  7  8  2  0
  8  9  1  0
  9 10  2  0
 10 11  1  0
 11 12  2  0
 11 13  1  0
  2 14  1  0
 14 15  2  0
 15 16  1  0
 16 17  1  0
 16 18  2  0
 18 19  1  0
 19 20  2  0
 20 21  1  0
 20 22  1  0
 22 23  1  0
 23 24  2  0
 10  4  1  0
 24 14  1  0
 23 18  1  0
M  END
>  <ref_pdb>  (155) 
c0270a

>  <inchikey>  (155) 
SXBQTDXZGQIXJM-UHFFFAOYSA-N

>  <original ID>  (155) 
SXBQTDXZGQIXJM-UHFFFAOYSA-N

>  <generation_date>  (155) 
None

>  <alias>  (155) 
None

>  <tags>  (155) 
[]

>  <ref_mols>  (155) 
c0692a,c0894a

>  <ref_url>  (155) 
None

>  <submitter_name>  (155) 
None

>  <exports>  (155) 
nan

>  <original SMILES>  (155) 
O=C(Nc1c(F)cccc1C(=O)O)c1cc(Cl)c2nc(O)[nH]c2c1

>  <method>  (155) 
None

>  <submitter_email>  (155) 
None

>  <HIPPO ID>  (155) 
93294

$$$$
AKCIKYZKMUNPET-UHFFFAOYSA-N
     RDKit          3D

 24 26  0  0  0  0  0  0  0  0999 V2000
   16.9177   12.0809   12.6399 O   0  0  0  0  0  0  0  0  0  0  0  0
   17.4830   11.7431   11.6064 C   0  0  0  0  0  0  0  0  0  0  0  0
   16.9639   10.9042   10.6422 N   0  0  0  0  0  0  0  0  0  0  0  0
   15.9629    9.9334   10.8298 C   0  0  0  0  0  0  0  0  0  0  0  0
   15.4822    9.3012    9.6857 C   0  0  0  0  0  0  0  0  0  0  0  0
   14.6111    8.2245    9.7975 C   0  0  0  0  0  0  0  0  0  0  0  0
   14.2577    7.7294   11.0486 C   0  0  0  0  0  0  0  0  0  0  0  0
   14.6573    8.4044   12.2002 C   0  0  0  0  0  0  0  0  0  0  0  0
   14.2756    8.0851   13.4758 O   0  0  0  0  0  0  0  0  0  0  0  0
   13.0550    7.3795   13.6641 C   0  0  0  0  0  0  0  0  0  0  0  0
   13.3069    6.2417   14.3297 F   0  0  0  0  0  0  0  0  0  0  0  0
   12.2658    8.1291   14.4868 F   0  0  0  0  0  0  0  0  0  0  0  0
   15.5139    9.5080   12.0844 C   0  0  0  0  0  0  0  0  0  0  0  0
   18.8726   12.2303   11.3733 C   0  0  0  0  0  0  0  0  0  0  0  0
   19.3355   13.3421   12.0906 C   0  0  0  0  0  0  0  0  0  0  0  0
   20.6758   13.7250   11.9924 C   0  0  0  0  0  0  0  0  0  0  0  0
   21.3139   15.0564   12.8414 Cl  0  0  0  0  0  0  0  0  0  0  0  0
   21.5668   13.0274   11.1620 C   0  0  0  0  0  0  0  0  0  0  0  0
   22.8855   13.2545   10.8071 N   0  0  0  0  0  0  0  0  0  0  0  0
   23.1423   12.3298    9.9250 C   0  0  0  0  0  0  0  0  0  0  0  0
   24.2309   12.2648    9.2017 O   0  0  0  0  0  0  0  0  0  0  0  0
   22.1315   11.4499    9.7640 N   0  0  0  0  0  0  0  0  0  0  0  0
   21.0728   11.9044   10.4998 C   0  0  0  0  0  0  0  0  0  0  0  0
   19.7494   11.4726   10.5817 C   0  0  0  0  0  0  0  0  0  0  0  0
  1  2  2  0
  2  3  1  0
  3  4  1  0
  4  5  2  0
  5  6  1  0
  6  7  2  0
  7  8  1  0
  8  9  1  0
  9 10  1  0
 10 11  1  0
 10 12  1  0
  8 13  2  0
  2 14  1  0
 14 15  2  0
 15 16  1  0
 16 17  1  0
 16 18  2  0
 18 19  1  0
 19 20  2  0
 20 21  1  0
 20 22  1  0
 22 23  1  0
 23 24  2  0
 13  4  1  0
 24 14  1  0
 23 18  1  0
M  END
>  <ref_pdb>  (156) 
c0270a

>  <inchikey>  (156) 
AKCIKYZKMUNPET-UHFFFAOYSA-N

>  <original ID>  (156) 
AKCIKYZKMUNPET-UHFFFAOYSA-N

>  <generation_date>  (156) 
None

>  <alias>  (156) 
None

>  <tags>  (156) 
[]

>  <ref_mols>  (156) 
c0692a,c0894a

>  <ref_url>  (156) 
None

>  <submitter_name>  (156) 
None

>  <exports>  (156) 
nan

>  <original SMILES>  (156) 
O=C(Nc1cccc(OC(F)F)c1)c1cc(Cl)c2nc(O)[nH]c2c1

>  <method>  (156) 
None

>  <submitter_email>  (156) 
None

>  <HIPPO ID>  (156) 
93298

$$$$
PPRLUTIFWGKTDZ-UHFFFAOYSA-N
     RDKit          3D

 24 26  0  0  0  0  0  0  0  0999 V2000
   13.4093    6.5929   11.4387 C   0  0  0  0  0  0  0  0  0  0  0  0
   14.2827    7.7979   11.2830 C   0  0  0  0  0  0  0  0  0  0  0  0
   14.7225    8.1685   10.0208 C   0  0  0  0  0  0  0  0  0  0  0  0
   15.5319    9.2876    9.8439 C   0  0  0  0  0  0  0  0  0  0  0  0
   16.0670    9.4897    8.5782 N   0  0  0  0  0  0  0  0  0  0  0  0
   15.9639   10.0213   10.9589 C   0  0  0  0  0  0  0  0  0  0  0  0
   16.9707   10.9801   10.7414 N   0  0  0  0  0  0  0  0  0  0  0  0
   17.4902   11.8465   11.6727 C   0  0  0  0  0  0  0  0  0  0  0  0
   16.9180   12.2453   12.6788 O   0  0  0  0  0  0  0  0  0  0  0  0
   18.8963   12.2698   11.4465 C   0  0  0  0  0  0  0  0  0  0  0  0
   19.4261   13.3257   12.2258 C   0  0  0  0  0  0  0  0  0  0  0  0
   20.7907   13.6482   12.1822 C   0  0  0  0  0  0  0  0  0  0  0  0
   21.3435   14.9649   13.1298 Cl  0  0  0  0  0  0  0  0  0  0  0  0
   21.5942   12.9310   11.3197 C   0  0  0  0  0  0  0  0  0  0  0  0
   21.0432   11.8982   10.5616 C   0  0  0  0  0  0  0  0  0  0  0  0
   19.7280   11.5229   10.6140 C   0  0  0  0  0  0  0  0  0  0  0  0
   22.0063   11.4053    9.7078 N   0  0  0  0  0  0  0  0  0  0  0  0
   23.1513   12.1710    9.8304 C   0  0  0  0  0  0  0  0  0  0  0  0
   24.1129   12.1112    9.0937 O   0  0  0  0  0  0  0  0  0  0  0  0
   22.9335   13.0427   10.9091 N   0  0  0  0  0  0  0  0  0  0  0  0
   24.0085   13.7130   11.5622 C   0  0  0  0  0  0  0  0  0  0  0  0
   15.4813    9.7006   12.2213 C   0  0  0  0  0  0  0  0  0  0  0  0
   14.6642    8.5869   12.3693 C   0  0  0  0  0  0  0  0  0  0  0  0
   14.1740    8.3151   13.5859 F   0  0  0  0  0  0  0  0  0  0  0  0
  1  2  1  0
  2  3  2  0
  3  4  1  0
  4  5  1  0
  4  6  2  0
  6  7  1  0
  7  8  1  0
  8  9  2  0
  8 10  1  0
 10 11  2  0
 11 12  1  0
 12 13  1  0
 12 14  2  0
 14 15  1  0
 15 16  2  0
 15 17  1  0
 17 18  1  0
 18 19  2  0
 18 20  1  0
 20 21  1  0
  6 22  1  0
 22 23  2  0
 23 24  1  0
 23  2  1  0
 16 10  1  0
 20 14  1  0
M  END
>  <ref_pdb>  (157) 
c0270a

>  <inchikey>  (157) 
PPRLUTIFWGKTDZ-UHFFFAOYSA-N

>  <original ID>  (157) 
PPRLUTIFWGKTDZ-UHFFFAOYSA-N

>  <generation_date>  (157) 
None

>  <alias>  (157) 
None

>  <tags>  (157) 
[]

>  <ref_mols>  (157) 
c0692a,c0894a

>  <ref_url>  (157) 
None

>  <submitter_name>  (157) 
None

>  <exports>  (157) 
nan

>  <original SMILES>  (157) 
Cc1cc(N)c(NC(=O)c2cc(Cl)c3c(c2)[nH]c(=O)n3C)cc1F

>  <method>  (157) 
None

>  <submitter_email>  (157) 
None

>  <HIPPO ID>  (157) 
93311

$$$$
PCXOXCGBQZDAAH-UHFFFAOYSA-N
     RDKit          3D

 24 26  0  0  0  0  0  0  0  0999 V2000
   14.2599    8.4165   14.1275 C   0  0  0  0  0  0  0  0  0  0  0  0
   14.7155    8.6375   12.7203 C   0  0  0  0  0  0  0  0  0  0  0  0
   14.3574    7.7513   11.7032 C   0  0  0  0  0  0  0  0  0  0  0  0
   14.7252    8.0231   10.3946 C   0  0  0  0  0  0  0  0  0  0  0  0
   15.4886    9.1546   10.0890 C   0  0  0  0  0  0  0  0  0  0  0  0
   15.9607    9.2784    8.7865 N   0  0  0  0  0  0  0  0  0  0  0  0
   15.9551    9.9808   11.1179 C   0  0  0  0  0  0  0  0  0  0  0  0
   16.9541   10.9161   10.7752 N   0  0  0  0  0  0  0  0  0  0  0  0
   17.4189   11.9331   11.5717 C   0  0  0  0  0  0  0  0  0  0  0  0
   16.7513   12.5546   12.3886 O   0  0  0  0  0  0  0  0  0  0  0  0
   18.8519   12.2913   11.4095 C   0  0  0  0  0  0  0  0  0  0  0  0
   19.3746   13.3420   12.2042 C   0  0  0  0  0  0  0  0  0  0  0  0
   20.7437   13.6391   12.2110 C   0  0  0  0  0  0  0  0  0  0  0  0
   21.2942   14.9392   13.1830 Cl  0  0  0  0  0  0  0  0  0  0  0  0
   21.5617   12.9044   11.3800 C   0  0  0  0  0  0  0  0  0  0  0  0
   21.0198   11.8872   10.5947 C   0  0  0  0  0  0  0  0  0  0  0  0
   19.6978   11.5322   10.6032 C   0  0  0  0  0  0  0  0  0  0  0  0
   22.0072   11.3771    9.7794 N   0  0  0  0  0  0  0  0  0  0  0  0
   23.1767   12.0846    9.9909 C   0  0  0  0  0  0  0  0  0  0  0  0
   24.2001   11.9612    9.3535 O   0  0  0  0  0  0  0  0  0  0  0  0
   22.9222   12.9755   11.0429 N   0  0  0  0  0  0  0  0  0  0  0  0
   23.9638   13.6687   11.7254 C   0  0  0  0  0  0  0  0  0  0  0  0
   15.5254    9.7361   12.4222 C   0  0  0  0  0  0  0  0  0  0  0  0
   15.9797   10.4595   13.4532 F   0  0  0  0  0  0  0  0  0  0  0  0
  1  2  1  0
  2  3  2  0
  3  4  1  0
  4  5  2  0
  5  6  1  0
  5  7  1  0
  7  8  1  0
  8  9  1  0
  9 10  2  0
  9 11  1  0
 11 12  2  0
 12 13  1  0
 13 14  1  0
 13 15  2  0
 15 16  1  0
 16 17  2  0
 16 18  1  0
 18 19  1  0
 19 20  2  0
 19 21  1  0
 21 22  1  0
  7 23  2  0
 23 24  1  0
 23  2  1  0
 17 11  1  0
 21 15  1  0
M  END
>  <ref_pdb>  (158) 
c0270a

>  <inchikey>  (158) 
PCXOXCGBQZDAAH-UHFFFAOYSA-N

>  <original ID>  (158) 
PCXOXCGBQZDAAH-UHFFFAOYSA-N

>  <generation_date>  (158) 
None

>  <alias>  (158) 
None

>  <tags>  (158) 
[]

>  <ref_mols>  (158) 
c0692a,c0894a

>  <ref_url>  (158) 
None

>  <submitter_name>  (158) 
None

>  <exports>  (158) 
nan

>  <original SMILES>  (158) 
Cc1ccc(N)c(NC(=O)c2cc(Cl)c3c(c2)[nH]c(=O)n3C)c1F

>  <method>  (158) 
None

>  <submitter_email>  (158) 
None

>  <HIPPO ID>  (158) 
93335

$$$$
NDFNMUZBSGUJGY-UHFFFAOYSA-N
     RDKit          3D

 24 26  0  0  0  0  0  0  0  0999 V2000
   13.4053    6.6273   10.9007 C   0  0  0  0  0  0  0  0  0  0  0  0
   14.2434    7.8646   10.8566 C   0  0  0  0  0  0  0  0  0  0  0  0
   14.6183    8.4169    9.6410 C   0  0  0  0  0  0  0  0  0  0  0  0
   15.5091    9.4814    9.6088 C   0  0  0  0  0  0  0  0  0  0  0  0
   15.9807   10.0698   10.7898 C   0  0  0  0  0  0  0  0  0  0  0  0
   17.0198   11.0029   10.6109 N   0  0  0  0  0  0  0  0  0  0  0  0
   17.5112   11.8983   11.5299 C   0  0  0  0  0  0  0  0  0  0  0  0
   16.8679   12.3986   12.4473 O   0  0  0  0  0  0  0  0  0  0  0  0
   18.9420   12.2656   11.3847 C   0  0  0  0  0  0  0  0  0  0  0  0
   19.4627   13.3072   12.1895 C   0  0  0  0  0  0  0  0  0  0  0  0
   20.8300   13.6172   12.1827 C   0  0  0  0  0  0  0  0  0  0  0  0
   21.3703   14.9215   13.1549 Cl  0  0  0  0  0  0  0  0  0  0  0  0
   21.6452   12.9065   11.3259 C   0  0  0  0  0  0  0  0  0  0  0  0
   21.1051   11.8856   10.5441 C   0  0  0  0  0  0  0  0  0  0  0  0
   19.7875   11.5135   10.5719 C   0  0  0  0  0  0  0  0  0  0  0  0
   22.0787   11.4151    9.6878 N   0  0  0  0  0  0  0  0  0  0  0  0
   23.2224   12.1776    9.8422 C   0  0  0  0  0  0  0  0  0  0  0  0
   24.1951   12.1369    9.1178 O   0  0  0  0  0  0  0  0  0  0  0  0
   22.9902   13.0246   10.9375 N   0  0  0  0  0  0  0  0  0  0  0  0
   24.0473   13.7080   11.6053 C   0  0  0  0  0  0  0  0  0  0  0  0
   15.4874    9.6331   12.0290 C   0  0  0  0  0  0  0  0  0  0  0  0
   15.9588   10.1115   13.2738 N   0  0  0  0  0  0  0  0  0  0  0  0
   14.6778    8.4875   12.0291 C   0  0  0  0  0  0  0  0  0  0  0  0
   14.2210    8.0358   13.2098 F   0  0  0  0  0  0  0  0  0  0  0  0
  1  2  1  0
  2  3  2  0
  3  4  1  0
  4  5  2  0
  5  6  1  0
  6  7  1  0
  7  8  2  0
  7  9  1  0
  9 10  2  0
 10 11  1  0
 11 12  1  0
 11 13  2  0
 13 14  1  0
 14 15  2  0
 14 16  1  0
 16 17  1  0
 17 18  2  0
 17 19  1  0
 19 20  1  0
  5 21  1  0
 21 22  1  0
 21 23  2  0
 23 24  1  0
 23  2  1  0
 15  9  1  0
 19 13  1  0
M  END
>  <ref_pdb>  (159) 
c0270a

>  <inchikey>  (159) 
NDFNMUZBSGUJGY-UHFFFAOYSA-N

>  <original ID>  (159) 
NDFNMUZBSGUJGY-UHFFFAOYSA-N

>  <generation_date>  (159) 
None

>  <alias>  (159) 
None

>  <tags>  (159) 
[]

>  <ref_mols>  (159) 
c0692a,c0894a

>  <ref_url>  (159) 
None

>  <submitter_name>  (159) 
None

>  <exports>  (159) 
nan

>  <original SMILES>  (159) 
Cc1ccc(NC(=O)c2cc(Cl)c3c(c2)[nH]c(=O)n3C)c(N)c1F

>  <method>  (159) 
None

>  <submitter_email>  (159) 
None

>  <HIPPO ID>  (159) 
93336

$$$$
KLCYCPSZXZGYFU-UHFFFAOYSA-N
     RDKit          3D

 25 27  0  0  0  0  0  0  0  0999 V2000
   23.8761   13.6750   11.7472 C   0  0  0  0  0  0  0  0  0  0  0  0
   22.8624   12.9363   11.0717 N   0  0  0  0  0  0  0  0  0  0  0  0
   23.1372   12.0826    9.9934 C   0  0  0  0  0  0  0  0  0  0  0  0
   24.1524   12.0205    9.3318 O   0  0  0  0  0  0  0  0  0  0  0  0
   21.9863   11.3433    9.7760 N   0  0  0  0  0  0  0  0  0  0  0  0
   20.9801   11.8271   10.5877 C   0  0  0  0  0  0  0  0  0  0  0  0
   19.6560   11.4757   10.5543 C   0  0  0  0  0  0  0  0  0  0  0  0
   18.7817   12.2466   11.3184 C   0  0  0  0  0  0  0  0  0  0  0  0
   17.3243   11.9500   11.3469 C   0  0  0  0  0  0  0  0  0  0  0  0
   16.5732   12.6651   12.0004 O   0  0  0  0  0  0  0  0  0  0  0  0
   16.9053   10.8900   10.5779 N   0  0  0  0  0  0  0  0  0  0  0  0
   15.9202    9.9355   10.9064 C   0  0  0  0  0  0  0  0  0  0  0  0
   15.5033    9.1209    9.8471 C   0  0  0  0  0  0  0  0  0  0  0  0
   15.9475    9.3801    8.6129 F   0  0  0  0  0  0  0  0  0  0  0  0
   14.6738    8.0238   10.0333 C   0  0  0  0  0  0  0  0  0  0  0  0
   14.3122    7.6555   11.3165 C   0  0  0  0  0  0  0  0  0  0  0  0
   14.6839    8.4661   12.3873 C   0  0  0  0  0  0  0  0  0  0  0  0
   15.4258    9.6423   12.1809 C   0  0  0  0  0  0  0  0  0  0  0  0
   15.6832   10.4507   13.3799 C   0  0  0  0  0  0  0  0  0  0  0  0
   16.7612   10.7624   13.8411 O   0  0  0  0  0  0  0  0  0  0  0  0
   14.5211   10.8122   13.9533 O   0  0  0  0  0  0  0  0  0  0  0  0
   19.2815   13.2833   12.1445 C   0  0  0  0  0  0  0  0  0  0  0  0
   20.6538   13.5704   12.2041 C   0  0  0  0  0  0  0  0  0  0  0  0
   21.1784   14.8672   13.1963 Cl  0  0  0  0  0  0  0  0  0  0  0  0
   21.4976   12.8423   11.3910 C   0  0  0  0  0  0  0  0  0  0  0  0
  1  2  1  0
  2  3  1  0
  3  4  2  0
  3  5  1  0
  5  6  1  0
  6  7  2  0
  7  8  1  0
  8  9  1  0
  9 10  2  0
  9 11  1  0
 11 12  1  0
 12 13  2  0
 13 14  1  0
 13 15  1  0
 15 16  2  0
 16 17  1  0
 17 18  2  0
 18 19  1  0
 19 20  2  0
 19 21  1  0
  8 22  2  0
 22 23  1  0
 23 24  1  0
 23 25  2  0
 25  2  1  0
 25  6  1  0
 18 12  1  0
M  END
>  <ref_pdb>  (160) 
c0270a

>  <inchikey>  (160) 
KLCYCPSZXZGYFU-UHFFFAOYSA-N

>  <original ID>  (160) 
KLCYCPSZXZGYFU-UHFFFAOYSA-N

>  <generation_date>  (160) 
None

>  <alias>  (160) 
None

>  <tags>  (160) 
[]

>  <ref_mols>  (160) 
c0692a,c0894a

>  <ref_url>  (160) 
None

>  <submitter_name>  (160) 
None

>  <exports>  (160) 
nan

>  <original SMILES>  (160) 
Cn1c(=O)[nH]c2cc(C(=O)Nc3c(F)cccc3C(=O)O)cc(Cl)c21

>  <method>  (160) 
None

>  <submitter_email>  (160) 
None

>  <HIPPO ID>  (160) 
93457

$$$$
KKISRMWWHNVBNR-UHFFFAOYSA-N
     RDKit          3D

 25 27  0  0  0  0  0  0  0  0999 V2000
   23.9405   13.6969   11.7956 C   0  0  0  0  0  0  0  0  0  0  0  0
   22.9256   13.0023   11.0752 N   0  0  0  0  0  0  0  0  0  0  0  0
   23.2199   12.1153   10.0321 C   0  0  0  0  0  0  0  0  0  0  0  0
   24.2669   11.9913    9.4364 O   0  0  0  0  0  0  0  0  0  0  0  0
   22.0653   11.4037    9.7733 N   0  0  0  0  0  0  0  0  0  0  0  0
   21.0532   11.8910   10.5697 C   0  0  0  0  0  0  0  0  0  0  0  0
   19.7417   11.5093   10.5514 C   0  0  0  0  0  0  0  0  0  0  0  0
   18.8699   12.2459   11.3476 C   0  0  0  0  0  0  0  0  0  0  0  0
   17.4624   11.8140   11.4884 C   0  0  0  0  0  0  0  0  0  0  0  0
   16.8303   12.2118   12.4611 O   0  0  0  0  0  0  0  0  0  0  0  0
   16.9951   10.9419   10.5270 N   0  0  0  0  0  0  0  0  0  0  0  0
   16.0159    9.9660   10.7370 C   0  0  0  0  0  0  0  0  0  0  0  0
   15.5124    9.2901    9.6291 C   0  0  0  0  0  0  0  0  0  0  0  0
   14.6305    8.2301    9.8054 C   0  0  0  0  0  0  0  0  0  0  0  0
   14.2877    7.8183   11.0863 C   0  0  0  0  0  0  0  0  0  0  0  0
   14.7315    8.5437   12.1892 C   0  0  0  0  0  0  0  0  0  0  0  0
   14.2153    8.1810   13.3999 O   0  0  0  0  0  0  0  0  0  0  0  0
   14.0635    9.2611   14.3095 C   0  0  0  0  0  0  0  0  0  0  0  0
   15.1277    9.2588   15.1418 F   0  0  0  0  0  0  0  0  0  0  0  0
   12.9678    8.9873   15.0667 F   0  0  0  0  0  0  0  0  0  0  0  0
   15.6167    9.5972   12.0163 C   0  0  0  0  0  0  0  0  0  0  0  0
   19.3492   13.2999   12.1627 C   0  0  0  0  0  0  0  0  0  0  0  0
   20.7111   13.6248   12.1960 C   0  0  0  0  0  0  0  0  0  0  0  0
   21.2201   14.9262   13.1881 Cl  0  0  0  0  0  0  0  0  0  0  0  0
   21.5588   12.9110   11.3759 C   0  0  0  0  0  0  0  0  0  0  0  0
  1  2  1  0
  2  3  1  0
  3  4  2  0
  3  5  1  0
  5  6  1  0
  6  7  2  0
  7  8  1  0
  8  9  1  0
  9 10  2  0
  9 11  1  0
 11 12  1  0
 12 13  2  0
 13 14  1  0
 14 15  2  0
 15 16  1  0
 16 17  1  0
 17 18  1  0
 18 19  1  0
 18 20  1  0
 16 21  2  0
  8 22  2  0
 22 23  1  0
 23 24  1  0
 23 25  2  0
 25  2  1  0
 25  6  1  0
 21 12  1  0
M  END
>  <ref_pdb>  (161) 
c0270a

>  <inchikey>  (161) 
KKISRMWWHNVBNR-UHFFFAOYSA-N

>  <original ID>  (161) 
KKISRMWWHNVBNR-UHFFFAOYSA-N

>  <generation_date>  (161) 
None

>  <alias>  (161) 
None

>  <tags>  (161) 
[]

>  <ref_mols>  (161) 
c0692a,c0894a

>  <ref_url>  (161) 
None

>  <submitter_name>  (161) 
None

>  <exports>  (161) 
nan

>  <original SMILES>  (161) 
Cn1c(=O)[nH]c2cc(C(=O)Nc3cccc(OC(F)F)c3)cc(Cl)c21

>  <method>  (161) 
None

>  <submitter_email>  (161) 
None

>  <HIPPO ID>  (161) 
93462

$$$$
PHARUNZZHKVOCV-UHFFFAOYSA-N
     RDKit          3D

 19 20  0  0  0  0  0  0  0  0999 V2000
   21.7975   11.4295   10.2527 C   0  0  0  0  0  0  0  0  0  0  0  0
   20.4227   11.6457   10.5902 O   0  0  0  0  0  0  0  0  0  0  0  0
   20.1384   12.7993   11.2665 C   0  0  0  0  0  0  0  0  0  0  0  0
   21.1026   13.7952   11.5121 C   0  0  0  0  0  0  0  0  0  0  0  0
   20.8138   14.9288   12.2799 C   0  0  0  0  0  0  0  0  0  0  0  0
   21.8115   15.8900   12.5232 N   0  0  0  0  0  0  0  0  0  0  0  0
   19.5059   15.1709   12.6611 C   0  0  0  0  0  0  0  0  0  0  0  0
   18.5410   14.2026   12.4357 C   0  0  0  0  0  0  0  0  0  0  0  0
   18.8454   12.9956   11.7716 C   0  0  0  0  0  0  0  0  0  0  0  0
   17.7523   11.9985   11.8868 C   0  0  0  0  0  0  0  0  0  0  0  0
   17.1079   12.0725   12.9363 O   0  0  0  0  0  0  0  0  0  0  0  0
   17.4656   11.1033   10.8726 N   0  0  0  0  0  0  0  0  0  0  0  0
   16.4306   10.1263   10.9463 C   0  0  0  0  0  0  0  0  0  0  0  0
   15.9817    9.5179    9.7738 C   0  0  0  0  0  0  0  0  0  0  0  0
   15.0023    8.5209    9.8114 C   0  0  0  0  0  0  0  0  0  0  0  0
   14.5255    8.0653   11.0262 C   0  0  0  0  0  0  0  0  0  0  0  0
   13.6154    7.0521   11.0269 O   0  0  0  0  0  0  0  0  0  0  0  0
   14.9497    8.6516   12.2062 C   0  0  0  0  0  0  0  0  0  0  0  0
   15.8697    9.6996   12.1587 C   0  0  0  0  0  0  0  0  0  0  0  0
  1  2  1  0
  2  3  1  0
  3  4  2  0
  4  5  1  0
  5  6  1  0
  5  7  2  0
  7  8  1  0
  8  9  2  0
  9 10  1  0
 10 11  2  0
 10 12  1  0
 12 13  1  0
 13 14  2  0
 14 15  1  0
 15 16  2  0
 16 17  1  0
 16 18  1  0
 18 19  2  0
  9  3  1  0
 19 13  1  0
M  END
>  <ref_pdb>  (162) 
c0270a

>  <inchikey>  (162) 
PHARUNZZHKVOCV-UHFFFAOYSA-N

>  <original ID>  (162) 
PHARUNZZHKVOCV-UHFFFAOYSA-N

>  <generation_date>  (162) 
None

>  <alias>  (162) 
None

>  <tags>  (162) 
[]

>  <ref_mols>  (162) 
c0935a,c1118a

>  <ref_url>  (162) 
None

>  <submitter_name>  (162) 
None

>  <exports>  (162) 
nan

>  <original SMILES>  (162) 
COc1cc(N)ccc1C(=O)Nc1ccc(O)cc1

>  <method>  (162) 
None

>  <submitter_email>  (162) 
None

>  <HIPPO ID>  (162) 
93814

$$$$
UFLPSEPCAKMZPE-UHFFFAOYSA-N
     RDKit          3D

 20 21  0  0  0  0  0  0  0  0999 V2000
   21.5134   11.0472   10.3456 C   0  0  0  0  0  0  0  0  0  0  0  0
   20.2009   11.5738   10.5088 O   0  0  0  0  0  0  0  0  0  0  0  0
   20.0769   12.6989   11.2744 C   0  0  0  0  0  0  0  0  0  0  0  0
   21.1512   13.5633   11.5467 C   0  0  0  0  0  0  0  0  0  0  0  0
   20.9927   14.6889   12.3651 C   0  0  0  0  0  0  0  0  0  0  0  0
   22.0572   15.5873   12.5602 N   0  0  0  0  0  0  0  0  0  0  0  0
   19.7257   15.0263   12.8139 C   0  0  0  0  0  0  0  0  0  0  0  0
   18.6536   14.1911   12.5465 C   0  0  0  0  0  0  0  0  0  0  0  0
   18.8085   13.0211   11.7793 C   0  0  0  0  0  0  0  0  0  0  0  0
   17.5504   12.2391   11.6264 C   0  0  0  0  0  0  0  0  0  0  0  0
   16.5133   12.7419   12.0575 O   0  0  0  0  0  0  0  0  0  0  0  0
   17.5572   11.0315   10.9623 N   0  0  0  0  0  0  0  0  0  0  0  0
   16.4500   10.1418   10.9847 C   0  0  0  0  0  0  0  0  0  0  0  0
   16.1103    9.5157    9.7848 C   0  0  0  0  0  0  0  0  0  0  0  0
   15.1028    8.5586    9.7282 C   0  0  0  0  0  0  0  0  0  0  0  0
   14.5213    8.1109   10.8946 C   0  0  0  0  0  0  0  0  0  0  0  0
   13.6158    7.0933   10.8745 O   0  0  0  0  0  0  0  0  0  0  0  0
   14.8408    8.7039   12.1049 C   0  0  0  0  0  0  0  0  0  0  0  0
   15.7529    9.7633   12.1500 C   0  0  0  0  0  0  0  0  0  0  0  0
   16.0542   10.4081   13.7252 Cl  0  0  0  0  0  0  0  0  0  0  0  0
  1  2  1  0
  2  3  1  0
  3  4  2  0
  4  5  1  0
  5  6  1  0
  5  7  2  0
  7  8  1  0
  8  9  2  0
  9 10  1  0
 10 11  2  0
 10 12  1  0
 12 13  1  0
 13 14  2  0
 14 15  1  0
 15 16  2  0
 16 17  1  0
 16 18  1  0
 18 19  2  0
 19 20  1  0
  9  3  1  0
 19 13  1  0
M  END
>  <ref_pdb>  (163) 
c0270a

>  <inchikey>  (163) 
UFLPSEPCAKMZPE-UHFFFAOYSA-N

>  <original ID>  (163) 
UFLPSEPCAKMZPE-UHFFFAOYSA-N

>  <generation_date>  (163) 
None

>  <alias>  (163) 
None

>  <tags>  (163) 
[]

>  <ref_mols>  (163) 
c0935a,c1118a

>  <ref_url>  (163) 
None

>  <submitter_name>  (163) 
None

>  <exports>  (163) 
nan

>  <original SMILES>  (163) 
COc1cc(N)ccc1C(=O)Nc1ccc(O)cc1Cl

>  <method>  (163) 
None

>  <submitter_email>  (163) 
None

>  <HIPPO ID>  (163) 
93891

$$$$
LSOSVLWFXBHXHY-UHFFFAOYSA-N
     RDKit          3D

 21 23  0  0  0  0  0  0  0  0999 V2000
   21.8385   11.2591   10.4957 C   0  0  0  0  0  0  0  0  0  0  0  0
   20.4474   11.5653   10.6558 O   0  0  0  0  0  0  0  0  0  0  0  0
   20.1588   12.7462   11.2830 C   0  0  0  0  0  0  0  0  0  0  0  0
   21.1322   13.7361   11.5170 C   0  0  0  0  0  0  0  0  0  0  0  0
   20.8545   14.8745   12.2818 C   0  0  0  0  0  0  0  0  0  0  0  0
   21.8662   15.8154   12.5458 N   0  0  0  0  0  0  0  0  0  0  0  0
   19.5448   15.1422   12.6410 C   0  0  0  0  0  0  0  0  0  0  0  0
   18.5646   14.1920   12.4034 C   0  0  0  0  0  0  0  0  0  0  0  0
   18.8589   12.9731   11.7573 C   0  0  0  0  0  0  0  0  0  0  0  0
   17.7551   11.9899   11.8827 C   0  0  0  0  0  0  0  0  0  0  0  0
   17.1273   12.0683   12.9424 O   0  0  0  0  0  0  0  0  0  0  0  0
   17.4407   11.1047   10.8674 N   0  0  0  0  0  0  0  0  0  0  0  0
   16.4108   10.1232   10.9643 C   0  0  0  0  0  0  0  0  0  0  0  0
   15.9208    9.5260    9.7910 C   0  0  0  0  0  0  0  0  0  0  0  0
   14.9591    8.5078    9.8390 C   0  0  0  0  0  0  0  0  0  0  0  0
   14.5666    8.0387   11.0696 C   0  0  0  0  0  0  0  0  0  0  0  0
   15.0330    8.6085   12.2331 C   0  0  0  0  0  0  0  0  0  0  0  0
   15.9111    9.6764   12.1979 C   0  0  0  0  0  0  0  0  0  0  0  0
   14.4611    7.9164   13.4048 C   0  0  0  0  0  0  0  0  0  0  0  0
   13.7356    6.7687   12.6953 C   0  0  0  0  0  0  0  0  0  0  0  0
   13.6870    7.0112   11.2706 O   0  0  0  0  0  0  0  0  0  0  0  0
  1  2  1  0
  2  3  1  0
  3  4  2  0
  4  5  1  0
  5  6  1  0
  5  7  2  0
  7  8  1  0
  8  9  2  0
  9 10  1  0
 10 11  2  0
 10 12  1  0
 12 13  1  0
 13 14  2  0
 14 15  1  0
 15 16  2  0
 16 17  1  0
 17 18  2  0
 17 19  1  0
 19 20  1  0
 20 21  1  0
  9  3  1  0
 18 13  1  0
 21 16  1  0
M  END
>  <ref_pdb>  (164) 
c0270a

>  <inchikey>  (164) 
LSOSVLWFXBHXHY-UHFFFAOYSA-N

>  <original ID>  (164) 
LSOSVLWFXBHXHY-UHFFFAOYSA-N

>  <generation_date>  (164) 
None

>  <alias>  (164) 
None

>  <tags>  (164) 
[]

>  <ref_mols>  (164) 
c0935a,c1118a

>  <ref_url>  (164) 
None

>  <submitter_name>  (164) 
None

>  <exports>  (164) 
nan

>  <original SMILES>  (164) 
COc1cc(N)ccc1C(=O)Nc1ccc2c(c1)CCO2

>  <method>  (164) 
None

>  <submitter_email>  (164) 
None

>  <HIPPO ID>  (164) 
93994

$$$$
UNCIXGISVFDVJK-UHFFFAOYSA-N
     RDKit          3D

 21 22  0  0  0  0  0  0  0  0999 V2000
   21.6122   11.0375   10.3980 C   0  0  0  0  0  0  0  0  0  0  0  0
   20.3096   11.6015   10.5049 O   0  0  0  0  0  0  0  0  0  0  0  0
   20.1945   12.7243   11.2747 C   0  0  0  0  0  0  0  0  0  0  0  0
   21.2753   13.5740   11.5634 C   0  0  0  0  0  0  0  0  0  0  0  0
   21.1219   14.6949   12.3905 C   0  0  0  0  0  0  0  0  0  0  0  0
   22.1876   15.5903   12.5893 N   0  0  0  0  0  0  0  0  0  0  0  0
   19.8577   15.0381   12.8419 C   0  0  0  0  0  0  0  0  0  0  0  0
   18.7792   14.2225   12.5502 C   0  0  0  0  0  0  0  0  0  0  0  0
   18.9271   13.0665   11.7598 C   0  0  0  0  0  0  0  0  0  0  0  0
   17.6534   12.3403   11.5362 C   0  0  0  0  0  0  0  0  0  0  0  0
   16.6185   12.9482   11.8076 O   0  0  0  0  0  0  0  0  0  0  0  0
   17.6500   11.0821   10.9778 N   0  0  0  0  0  0  0  0  0  0  0  0
   16.5166   10.2259   11.0136 C   0  0  0  0  0  0  0  0  0  0  0  0
   16.2134    9.5222    9.8464 C   0  0  0  0  0  0  0  0  0  0  0  0
   15.2073    8.5631    9.8184 C   0  0  0  0  0  0  0  0  0  0  0  0
   14.5899    8.1944   10.9926 C   0  0  0  0  0  0  0  0  0  0  0  0
   13.6858    7.1747   11.0118 O   0  0  0  0  0  0  0  0  0  0  0  0
   14.8699    8.8719   12.1706 C   0  0  0  0  0  0  0  0  0  0  0  0
   15.7733    9.9456   12.1820 C   0  0  0  0  0  0  0  0  0  0  0  0
   15.9811   10.7582   13.7655 S   0  0  0  0  0  0  0  0  0  0  0  0
   14.6118   11.9479   13.6256 C   0  0  0  0  0  0  0  0  0  0  0  0
  1  2  1  0
  2  3  1  0
  3  4  2  0
  4  5  1  0
  5  6  1  0
  5  7  2  0
  7  8  1  0
  8  9  2  0
  9 10  1  0
 10 11  2  0
 10 12  1  0
 12 13  1  0
 13 14  2  0
 14 15  1  0
 15 16  2  0
 16 17  1  0
 16 18  1  0
 18 19  2  0
 19 20  1  0
 20 21  1  0
  9  3  1  0
 19 13  1  0
M  END
>  <ref_pdb>  (165) 
c0270a

>  <inchikey>  (165) 
UNCIXGISVFDVJK-UHFFFAOYSA-N

>  <original ID>  (165) 
UNCIXGISVFDVJK-UHFFFAOYSA-N

>  <generation_date>  (165) 
None

>  <alias>  (165) 
None

>  <tags>  (165) 
[]

>  <ref_mols>  (165) 
c0935a,c1118a

>  <ref_url>  (165) 
None

>  <submitter_name>  (165) 
None

>  <exports>  (165) 
nan

>  <original SMILES>  (165) 
COc1cc(N)ccc1C(=O)Nc1ccc(O)cc1SC

>  <method>  (165) 
None

>  <submitter_email>  (165) 
None

>  <HIPPO ID>  (165) 
94196

$$$$
FQKBIJKKBQUYQU-UHFFFAOYSA-N
     RDKit          3D

 22 23  0  0  0  0  0  0  0  0999 V2000
   21.8339   11.1250   10.6198 C   0  0  0  0  0  0  0  0  0  0  0  0
   20.4779   11.5894   10.6309 O   0  0  0  0  0  0  0  0  0  0  0  0
   20.2573   12.7593   11.3085 C   0  0  0  0  0  0  0  0  0  0  0  0
   21.2890   13.6794   11.5757 C   0  0  0  0  0  0  0  0  0  0  0  0
   21.0718   14.8245   12.3511 C   0  0  0  0  0  0  0  0  0  0  0  0
   22.1097   15.7468   12.5703 N   0  0  0  0  0  0  0  0  0  0  0  0
   19.7827   15.1419   12.7385 C   0  0  0  0  0  0  0  0  0  0  0  0
   18.7492   14.2640   12.4621 C   0  0  0  0  0  0  0  0  0  0  0  0
   18.9620   13.0641   11.7503 C   0  0  0  0  0  0  0  0  0  0  0  0
   17.7280   12.2445   11.6213 C   0  0  0  0  0  0  0  0  0  0  0  0
   16.7064   12.6811   12.1563 O   0  0  0  0  0  0  0  0  0  0  0  0
   17.7045   11.0824   10.8744 N   0  0  0  0  0  0  0  0  0  0  0  0
   16.6015   10.1931   10.9546 C   0  0  0  0  0  0  0  0  0  0  0  0
   16.2047    9.4786    9.8296 C   0  0  0  0  0  0  0  0  0  0  0  0
   15.1874    8.5290    9.9159 C   0  0  0  0  0  0  0  0  0  0  0  0
   14.6113    8.2344   11.1451 C   0  0  0  0  0  0  0  0  0  0  0  0
   13.6907    7.2267   11.2188 O   0  0  0  0  0  0  0  0  0  0  0  0
   14.9683    8.9592   12.2829 C   0  0  0  0  0  0  0  0  0  0  0  0
   14.3460    8.7675   13.5582 C   0  0  0  0  0  0  0  0  0  0  0  0
   13.7888    8.6677   14.5743 N   0  0  0  0  0  0  0  0  0  0  0  0
   15.9492    9.9373   12.1739 C   0  0  0  0  0  0  0  0  0  0  0  0
   16.3700   10.5294   13.3039 F   0  0  0  0  0  0  0  0  0  0  0  0
  1  2  1  0
  2  3  1  0
  3  4  2  0
  4  5  1  0
  5  6  1  0
  5  7  2  0
  7  8  1  0
  8  9  2  0
  9 10  1  0
 10 11  2  0
 10 12  1  0
 12 13  1  0
 13 14  2  0
 14 15  1  0
 15 16  2  0
 16 17  1  0
 16 18  1  0
 18 19  1  0
 19 20  3  0
 18 21  2  0
 21 22  1  0
  9  3  1  0
 21 13  1  0
M  END
>  <ref_pdb>  (166) 
c0270a

>  <inchikey>  (166) 
FQKBIJKKBQUYQU-UHFFFAOYSA-N

>  <original ID>  (166) 
FQKBIJKKBQUYQU-UHFFFAOYSA-N

>  <generation_date>  (166) 
None

>  <alias>  (166) 
None

>  <tags>  (166) 
[]

>  <ref_mols>  (166) 
c0935a,c1118a

>  <ref_url>  (166) 
None

>  <submitter_name>  (166) 
None

>  <exports>  (166) 
nan

>  <original SMILES>  (166) 
COc1cc(N)ccc1C(=O)Nc1ccc(O)c(C#N)c1F

>  <method>  (166) 
None

>  <submitter_email>  (166) 
None

>  <HIPPO ID>  (166) 
94659

$$$$
YFBWMALMFMVNGN-UHFFFAOYSA-N
     RDKit          3D

 22 23  0  0  0  0  0  0  0  0999 V2000
   21.7918   11.1908   10.5588 C   0  0  0  0  0  0  0  0  0  0  0  0
   20.4345   11.6509   10.6237 O   0  0  0  0  0  0  0  0  0  0  0  0
   20.2287   12.7952   11.3496 C   0  0  0  0  0  0  0  0  0  0  0  0
   21.2760   13.6799   11.6696 C   0  0  0  0  0  0  0  0  0  0  0  0
   21.0724   14.8007   12.4818 C   0  0  0  0  0  0  0  0  0  0  0  0
   22.1224   15.7000   12.7306 N   0  0  0  0  0  0  0  0  0  0  0  0
   19.7849   15.1266   12.8696 C   0  0  0  0  0  0  0  0  0  0  0  0
   18.7349   14.2856   12.5424 C   0  0  0  0  0  0  0  0  0  0  0  0
   18.9318   13.1168   11.7789 C   0  0  0  0  0  0  0  0  0  0  0  0
   17.6699   12.3617   11.5580 C   0  0  0  0  0  0  0  0  0  0  0  0
   16.6079   12.8935   11.8877 O   0  0  0  0  0  0  0  0  0  0  0  0
   17.6714   11.1243   10.9576 N   0  0  0  0  0  0  0  0  0  0  0  0
   16.5403   10.2627   10.9968 C   0  0  0  0  0  0  0  0  0  0  0  0
   16.2834    9.5166    9.8463 C   0  0  0  0  0  0  0  0  0  0  0  0
   15.2733    8.5577    9.8033 C   0  0  0  0  0  0  0  0  0  0  0  0
   14.6042    8.2135   10.9554 C   0  0  0  0  0  0  0  0  0  0  0  0
   13.7037    7.1936   10.9630 O   0  0  0  0  0  0  0  0  0  0  0  0
   14.8253    8.9285   12.1172 C   0  0  0  0  0  0  0  0  0  0  0  0
   15.7127   10.0167   12.1087 C   0  0  0  0  0  0  0  0  0  0  0  0
   15.7542   10.7770   13.3471 N   0  0  0  0  0  4  0  0  0  0  0  0
   14.6665   11.0897   13.8538 O   0  0  0  0  0  0  0  0  0  0  0  0
   16.8544   10.9758   13.8745 O   0  0  0  0  0  1  0  0  0  0  0  0
  1  2  1  0
  2  3  1  0
  3  4  2  0
  4  5  1  0
  5  6  1  0
  5  7  2  0
  7  8  1  0
  8  9  2  0
  9 10  1  0
 10 11  2  0
 10 12  1  0
 12 13  1  0
 13 14  2  0
 14 15  1  0
 15 16  2  0
 16 17  1  0
 16 18  1  0
 18 19  2  0
 19 20  1  0
 20 21  2  0
 20 22  1  0
  9  3  1  0
 19 13  1  0
M  CHG  2  20   1  22  -1
M  END
>  <ref_pdb>  (167) 
c0270a

>  <inchikey>  (167) 
YFBWMALMFMVNGN-UHFFFAOYSA-N

>  <original ID>  (167) 
YFBWMALMFMVNGN-UHFFFAOYSA-N

>  <generation_date>  (167) 
None

>  <alias>  (167) 
None

>  <tags>  (167) 
[]

>  <ref_mols>  (167) 
c0935a,c1118a

>  <ref_url>  (167) 
None

>  <submitter_name>  (167) 
None

>  <exports>  (167) 
nan

>  <original SMILES>  (167) 
COc1cc(N)ccc1C(=O)Nc1ccc(O)cc1[N+](=O)[O-]

>  <method>  (167) 
None

>  <submitter_email>  (167) 
None

>  <HIPPO ID>  (167) 
94662

$$$$
RVONYHCTWCRDJF-UHFFFAOYSA-N
     RDKit          3D

 23 26  0  0  0  0  0  0  0  0999 V2000
   17.5861    4.6248   11.7796 O   0  0  0  0  0  0  0  0  0  0  0  0
   16.6935    3.9527   12.3041 C   0  0  0  0  0  0  0  0  0  0  0  0
   15.4063    3.8564   11.8370 N   0  0  0  0  0  0  0  0  0  0  0  0
   14.8226    4.8505   11.0935 C   0  0  0  0  0  0  0  0  0  0  0  0
   13.6798    4.6870   10.4199 N   0  0  0  0  0  0  0  0  0  0  0  0
   13.4006    5.9699    9.9456 O   0  0  0  0  0  0  0  0  0  0  0  0
   14.3948    6.7837   10.4146 C   0  0  0  0  0  0  0  0  0  0  0  0
   14.3782    8.3299   10.2801 C   0  0  0  0  0  0  0  0  0  0  0  0
   13.7460    8.9018    9.0312 C   0  0  0  0  0  0  0  0  0  0  0  0
   15.1990    9.1124    9.3066 C   0  0  0  0  0  0  0  0  0  0  0  0
   15.2920    6.1343   11.1195 N   0  0  0  0  0  0  0  0  0  0  0  0
   17.0224    3.1461   13.5154 C   0  0  0  0  0  0  0  0  0  0  0  0
   18.3623    2.8679   13.7282 C   0  0  0  0  0  0  0  0  0  0  0  0
   18.7418    2.2249   14.8825 C   0  0  0  0  0  0  0  0  0  0  0  0
   17.8678    1.8419   15.8241 N   0  0  0  0  0  0  0  0  0  0  0  0
   16.5577    2.0865   15.6212 C   0  0  0  0  0  0  0  0  0  0  0  0
   15.6433    1.7638   16.6275 N   0  0  0  0  0  0  0  0  0  0  0  0
   16.1627    0.9533   17.7364 C   0  0  0  0  0  0  0  0  0  0  0  0
   15.0986    0.7974   18.8400 C   0  0  0  0  0  0  0  0  0  0  0  0
   15.3486   -0.5823   19.3589 C   0  0  0  0  0  0  0  0  0  0  0  0
   16.1244   -1.2906   18.5327 C   0  0  0  0  0  0  0  0  0  0  0  0
   16.5143   -0.4927   17.3306 C   0  0  0  0  0  0  0  0  0  0  0  0
   16.0987    2.7520   14.4809 C   0  0  0  0  0  0  0  0  0  0  0  0
  1  2  2  0
  2  3  1  0
  3  4  1  0
  4  5  2  0
  5  6  1  0
  6  7  1  0
  7  8  1  0
  8  9  1  0
  9 10  1  0
  7 11  2  0
  2 12  1  0
 12 13  2  0
 13 14  1  0
 14 15  2  0
 15 16  1  0
 16 17  1  0
 17 18  1  0
 18 19  1  0
 19 20  1  0
 20 21  2  0
 21 22  1  0
 16 23  2  0
 11  4  1  0
 23 12  1  0
 10  8  1  0
 22 18  1  0
M  END
>  <ref_pdb>  (168) 
c0300a

>  <inchikey>  (168) 
RVONYHCTWCRDJF-UHFFFAOYSA-N

>  <original ID>  (168) 
RVONYHCTWCRDJF-UHFFFAOYSA-N

>  <generation_date>  (168) 
None

>  <alias>  (168) 
None

>  <tags>  (168) 
[]

>  <ref_mols>  (168) 
c0316a,c0441a

>  <ref_url>  (168) 
None

>  <submitter_name>  (168) 
None

>  <exports>  (168) 
['/opt/xchem-fragalysis-2/maxwin/CHIKV_HIPPO/hippo_prod/CHIKV_prod11_recipes/Recipe_1G8PPKY_poses.sdf', '/opt/xchem-fragalysis-2/maxwin/CHIKV_HIPPO/hippo_prod/CHIKV_prod11_recipes/Recipe_1GERJCJ_poses.sdf']

>  <original SMILES>  (168) 
O=C(Nc1noc(C2CC2)n1)c1ccnc(NC2CC=CC2)c1

>  <method>  (168) 
None

>  <submitter_email>  (168) 
None

>  <HIPPO ID>  (168) 
98837

$$$$
QYWGYJFOJRFRHH-UHFFFAOYSA-N
     RDKit          3D

 23 25  0  0  0  0  0  0  0  0999 V2000
   13.7268    8.3834    8.7939 C   0  0  0  0  0  0  0  0  0  0  0  0
   13.9707    7.7139   10.1258 C   0  0  0  0  0  0  0  0  0  0  0  0
   14.9203    8.5850   10.9093 C   0  0  0  0  0  0  0  0  0  0  0  0
   14.3649    6.2933   10.1413 C   0  0  0  0  0  0  0  0  0  0  0  0
   15.2603    5.7252   10.9098 N   0  0  0  0  0  0  0  0  0  0  0  0
   14.9055    4.4121   10.8652 C   0  0  0  0  0  0  0  0  0  0  0  0
   15.4847    3.5039   11.7161 N   0  0  0  0  0  0  0  0  0  0  0  0
   16.6050    3.8577   12.4323 C   0  0  0  0  0  0  0  0  0  0  0  0
   17.4337    4.6787   12.0399 O   0  0  0  0  0  0  0  0  0  0  0  0
   16.8652    3.2499   13.7570 C   0  0  0  0  0  0  0  0  0  0  0  0
   17.9030    3.7801   14.5203 C   0  0  0  0  0  0  0  0  0  0  0  0
   18.1332    3.2423   15.7679 C   0  0  0  0  0  0  0  0  0  0  0  0
   17.4259    2.2213   16.2892 N   0  0  0  0  0  0  0  0  0  0  0  0
   16.4389    1.6987   15.5564 C   0  0  0  0  0  0  0  0  0  0  0  0
   15.7635    0.5637   15.9658 N   0  0  0  0  0  0  0  0  0  0  0  0
   15.8596   -0.0848   17.2636 C   0  0  0  0  0  0  0  0  0  0  0  0
   15.3985    0.7351   18.4685 C   0  0  0  0  0  0  0  0  0  0  0  0
   16.0841    0.0037   19.5853 C   0  0  0  0  0  0  0  0  0  0  0  0
   17.0774   -0.7725   19.1295 C   0  0  0  0  0  0  0  0  0  0  0  0
   17.2129   -0.6792   17.6374 C   0  0  0  0  0  0  0  0  0  0  0  0
   16.1141    2.2175   14.2991 C   0  0  0  0  0  0  0  0  0  0  0  0
   13.8651    4.1482   10.0720 N   0  0  0  0  0  0  0  0  0  0  0  0
   13.4982    5.4024    9.5846 O   0  0  0  0  0  0  0  0  0  0  0  0
  1  2  1  0
  2  3  1  0
  2  4  1  0
  4  5  2  0
  5  6  1  0
  6  7  1  0
  7  8  1  0
  8  9  2  0
  8 10  1  0
 10 11  2  0
 11 12  1  0
 12 13  2  0
 13 14  1  0
 14 15  1  0
 15 16  1  0
 16 17  1  0
 17 18  1  0
 18 19  2  0
 19 20  1  0
 14 21  2  0
  6 22  2  0
 22 23  1  0
 23  4  1  0
 21 10  1  0
 20 16  1  0
M  END
>  <ref_pdb>  (169) 
c0300a

>  <inchikey>  (169) 
QYWGYJFOJRFRHH-UHFFFAOYSA-N

>  <original ID>  (169) 
QYWGYJFOJRFRHH-UHFFFAOYSA-N

>  <generation_date>  (169) 
None

>  <alias>  (169) 
None

>  <tags>  (169) 
[]

>  <ref_mols>  (169) 
c0316a,c0441a

>  <ref_url>  (169) 
None

>  <submitter_name>  (169) 
None

>  <exports>  (169) 
['/opt/xchem-fragalysis-2/maxwin/CHIKV_HIPPO/hippo_prod/CHIKV_prod11_recipes/Recipe_1G8PPKY_poses.sdf', '/opt/xchem-fragalysis-2/maxwin/CHIKV_HIPPO/hippo_prod/CHIKV_prod11_recipes/Recipe_1GERJCJ_poses.sdf']

>  <original SMILES>  (169) 
CC(C)c1nc(NC(=O)c2ccnc(NC3CC=CC3)c2)no1

>  <method>  (169) 
None

>  <submitter_email>  (169) 
None

>  <HIPPO ID>  (169) 
98838

$$$$
SFDTUZQHZKCPRN-UHFFFAOYSA-N
     RDKit          3D

 24 27  0  0  0  0  0  0  0  0999 V2000
   17.6023    4.6270   11.7745 O   0  0  0  0  0  0  0  0  0  0  0  0
   16.7306    3.9673   12.3491 C   0  0  0  0  0  0  0  0  0  0  0  0
   15.4243    3.8589   11.9271 N   0  0  0  0  0  0  0  0  0  0  0  0
   14.8077    4.8455   11.1987 C   0  0  0  0  0  0  0  0  0  0  0  0
   13.6007    4.7104   10.6392 N   0  0  0  0  0  0  0  0  0  0  0  0
   13.3881    5.9463   10.0224 O   0  0  0  0  0  0  0  0  0  0  0  0
   14.4780    6.7155   10.3164 C   0  0  0  0  0  0  0  0  0  0  0  0
   14.7891    8.0843    9.6751 C   0  0  0  0  0  0  0  0  0  0  0  0
   13.6481    8.7654    8.9074 C   0  0  0  0  0  0  0  0  0  0  0  0
   14.2766   10.0836    9.3654 C   0  0  0  0  0  0  0  0  0  0  0  0
   14.8021    9.3125   10.5762 C   0  0  0  0  0  0  0  0  0  0  0  0
   15.3442    6.0934   11.0839 N   0  0  0  0  0  0  0  0  0  0  0  0
   17.0931    3.2628   13.6189 C   0  0  0  0  0  0  0  0  0  0  0  0
   18.3014    3.6228   14.2057 C   0  0  0  0  0  0  0  0  0  0  0  0
   18.6710    3.0259   15.3915 C   0  0  0  0  0  0  0  0  0  0  0  0
   17.8997    2.1394   16.0431 N   0  0  0  0  0  0  0  0  0  0  0  0
   16.7063    1.8166   15.5092 C   0  0  0  0  0  0  0  0  0  0  0  0
   15.9083    0.8624   16.1395 N   0  0  0  0  0  0  0  0  0  0  0  0
   16.2275    0.5435   17.5328 C   0  0  0  0  0  0  0  0  0  0  0  0
   15.0008   -0.0390   18.2659 C   0  0  0  0  0  0  0  0  0  0  0  0
   15.5939   -1.0795   19.1580 C   0  0  0  0  0  0  0  0  0  0  0  0
   16.8486   -1.3730   18.8062 C   0  0  0  0  0  0  0  0  0  0  0  0
   17.2993   -0.5548   17.6373 C   0  0  0  0  0  0  0  0  0  0  0  0
   16.2831    2.3462   14.2875 C   0  0  0  0  0  0  0  0  0  0  0  0
  1  2  2  0
  2  3  1  0
  3  4  1  0
  4  5  2  0
  5  6  1  0
  6  7  1  0
  7  8  1  0
  8  9  1  0
  9 10  1  0
 10 11  1  0
  7 12  2  0
  2 13  1  0
 13 14  2  0
 14 15  1  0
 15 16  2  0
 16 17  1  0
 17 18  1  0
 18 19  1  0
 19 20  1  0
 20 21  1  0
 21 22  2  0
 22 23  1  0
 17 24  2  0
 12  4  1  0
 24 13  1  0
 11  8  1  0
 23 19  1  0
M  END
>  <ref_pdb>  (170) 
c0300a

>  <inchikey>  (170) 
SFDTUZQHZKCPRN-UHFFFAOYSA-N

>  <original ID>  (170) 
SFDTUZQHZKCPRN-UHFFFAOYSA-N

>  <generation_date>  (170) 
None

>  <alias>  (170) 
None

>  <tags>  (170) 
[]

>  <ref_mols>  (170) 
c0316a,c0441a

>  <ref_url>  (170) 
None

>  <submitter_name>  (170) 
None

>  <exports>  (170) 
['/opt/xchem-fragalysis-2/maxwin/CHIKV_HIPPO/hippo_prod/CHIKV_prod11_recipes/Recipe_1G8PPKY_poses.sdf', '/opt/xchem-fragalysis-2/maxwin/CHIKV_HIPPO/hippo_prod/CHIKV_prod11_recipes/Recipe_1GERJCJ_poses.sdf']

>  <original SMILES>  (170) 
O=C(Nc1noc(C2CCC2)n1)c1ccnc(NC2CC=CC2)c1

>  <method>  (170) 
None

>  <submitter_email>  (170) 
None

>  <HIPPO ID>  (170) 
98841

$$$$
KDAPNLCPIPSDQD-SFHVURJKSA-N
     RDKit          3D

 26 29  0  0  0  0  0  0  0  0999 V2000
   13.6818    7.8631    9.4608 C   0  0  0  0  0  0  0  0  0  0  0  0
   13.8994    7.0712   10.7523 C   0  0  2  0  0  0  0  0  0  0  0  0
   14.6566    5.8491   10.4110 C   0  0  0  0  0  0  0  0  0  0  0  0
   15.6800    5.3708   11.0612 N   0  0  0  0  0  0  0  0  0  0  0  0
   15.4700    4.0439   10.9368 C   0  0  0  0  0  0  0  0  0  0  0  0
   16.0230    3.2269   11.8630 N   0  0  0  0  0  0  0  0  0  0  0  0
   17.1706    3.5742   12.5186 C   0  0  0  0  0  0  0  0  0  0  0  0
   18.0289    4.3459   12.0866 O   0  0  0  0  0  0  0  0  0  0  0  0
   17.3765    2.8807   13.8111 C   0  0  0  0  0  0  0  0  0  0  0  0
   18.6736    2.5463   14.1467 C   0  0  0  0  0  0  0  0  0  0  0  0
   18.9237    1.9686   15.3621 C   0  0  0  0  0  0  0  0  0  0  0  0
   17.9484    1.6773   16.2297 N   0  0  0  0  0  0  0  0  0  0  0  0
   16.6705    1.9538   15.8929 C   0  0  0  0  0  0  0  0  0  0  0  0
   15.6550    1.6765   16.8117 N   0  0  0  0  0  0  0  0  0  0  0  0
   16.0801    0.8654   17.9590 C   0  0  0  0  0  0  0  0  0  0  0  0
   14.9511    0.7372   18.9917 C   0  0  0  0  0  0  0  0  0  0  0  0
   15.1949   -0.6197   19.5691 C   0  0  0  0  0  0  0  0  0  0  0  0
   16.0044   -1.3531   18.7991 C   0  0  0  0  0  0  0  0  0  0  0  0
   16.4354   -0.5906   17.5894 C   0  0  0  0  0  0  0  0  0  0  0  0
   16.3464    2.5852   14.6974 C   0  0  0  0  0  0  0  0  0  0  0  0
   14.5270    3.6895   10.0633 N   0  0  0  0  0  0  0  0  0  0  0  0
   14.0046    4.9157    9.6554 O   0  0  0  0  0  0  0  0  0  0  0  0
   12.7165    6.5143   11.5729 C   0  0  0  0  0  0  0  0  0  0  0  0
   13.0812    6.8048   13.0161 C   0  0  0  0  0  0  0  0  0  0  0  0
   14.0382    7.8545   13.0442 O   0  0  0  0  0  0  0  0  0  0  0  0
   14.6767    7.9239   11.7639 C   0  0  0  0  0  0  0  0  0  0  0  0
  2  1  1  6
  2  3  1  0
  3  4  2  0
  4  5  1  0
  5  6  1  0
  6  7  1  0
  7  8  2  0
  7  9  1  0
  9 10  2  0
 10 11  1  0
 11 12  2  0
 12 13  1  0
 13 14  1  0
 14 15  1  0
 15 16  1  0
 16 17  1  0
 17 18  2  0
 18 19  1  0
 13 20  2  0
  5 21  2  0
 21 22  1  0
  2 23  1  0
 23 24  1  0
 24 25  1  0
 25 26  1  0
 26  2  1  0
 22  3  1  0
 20  9  1  0
 19 15  1  0
M  END
>  <ref_pdb>  (171) 
c0300a

>  <inchikey>  (171) 
KDAPNLCPIPSDQD-SFHVURJKSA-N

>  <original ID>  (171) 
KDAPNLCPIPSDQD-SFHVURJKSA-N

>  <generation_date>  (171) 
None

>  <alias>  (171) 
None

>  <tags>  (171) 
[]

>  <ref_mols>  (171) 
c0316a,c0441a

>  <ref_url>  (171) 
None

>  <submitter_name>  (171) 
None

>  <exports>  (171) 
['/opt/xchem-fragalysis-2/maxwin/CHIKV_HIPPO/hippo_prod/CHIKV_prod11_recipes/Recipe_1G8PPKY_poses.sdf', '/opt/xchem-fragalysis-2/maxwin/CHIKV_HIPPO/hippo_prod/CHIKV_prod11_recipes/Recipe_1GERJCJ_poses.sdf']

>  <original SMILES>  (171) 
C[C@]1(c2nc(NC(=O)c3ccnc(NC4CC=CC4)c3)no2)CCOC1

>  <method>  (171) 
None

>  <submitter_email>  (171) 
None

>  <HIPPO ID>  (171) 
98843

$$$$
KDAPNLCPIPSDQD-GOSISDBHSA-N
     RDKit          3D

 26 29  0  0  0  0  0  0  0  0999 V2000
   13.6969    7.8804    9.4691 C   0  0  0  0  0  0  0  0  0  0  0  0
   13.8846    7.0663   10.7510 C   0  0  1  0  0  0  0  0  0  0  0  0
   14.6046    5.8255   10.4068 C   0  0  0  0  0  0  0  0  0  0  0  0
   15.6478    5.3526   11.0313 N   0  0  0  0  0  0  0  0  0  0  0  0
   15.4275    4.0266   10.9312 C   0  0  0  0  0  0  0  0  0  0  0  0
   15.9970    3.2175   11.8549 N   0  0  0  0  0  0  0  0  0  0  0  0
   17.1431    3.5761   12.5072 C   0  0  0  0  0  0  0  0  0  0  0  0
   17.9942    4.3566   12.0767 O   0  0  0  0  0  0  0  0  0  0  0  0
   17.3575    2.8863   13.8005 C   0  0  0  0  0  0  0  0  0  0  0  0
   18.6579    2.5598   14.1312 C   0  0  0  0  0  0  0  0  0  0  0  0
   18.9158    1.9835   15.3458 C   0  0  0  0  0  0  0  0  0  0  0  0
   17.9456    1.6881   16.2180 N   0  0  0  0  0  0  0  0  0  0  0  0
   16.6649    1.9584   15.8865 C   0  0  0  0  0  0  0  0  0  0  0  0
   15.6546    1.6787   16.8099 N   0  0  0  0  0  0  0  0  0  0  0  0
   16.0840    0.8664   17.9545 C   0  0  0  0  0  0  0  0  0  0  0  0
   14.9578    0.7348   18.9901 C   0  0  0  0  0  0  0  0  0  0  0  0
   15.2037   -0.6235   19.5635 C   0  0  0  0  0  0  0  0  0  0  0  0
   16.0124   -1.3541   18.7901 C   0  0  0  0  0  0  0  0  0  0  0  0
   16.4404   -0.5883   17.5813 C   0  0  0  0  0  0  0  0  0  0  0  0
   16.3327    2.5872   14.6917 C   0  0  0  0  0  0  0  0  0  0  0  0
   14.4575    3.6671   10.0900 N   0  0  0  0  0  0  0  0  0  0  0  0
   13.9196    4.8892    9.6908 O   0  0  0  0  0  0  0  0  0  0  0  0
   14.6788    7.8741   11.7728 C   0  0  0  0  0  0  0  0  0  0  0  0
   14.1433    7.4558   13.1184 C   0  0  0  0  0  0  0  0  0  0  0  0
   12.7728    7.1041   12.9081 O   0  0  0  0  0  0  0  0  0  0  0  0
   12.6761    6.5558   11.5784 C   0  0  0  0  0  0  0  0  0  0  0  0
  2  1  1  6
  2  3  1  0
  3  4  2  0
  4  5  1  0
  5  6  1  0
  6  7  1  0
  7  8  2  0
  7  9  1  0
  9 10  2  0
 10 11  1  0
 11 12  2  0
 12 13  1  0
 13 14  1  0
 14 15  1  0
 15 16  1  0
 16 17  1  0
 17 18  2  0
 18 19  1  0
 13 20  2  0
  5 21  2  0
 21 22  1  0
  2 23  1  0
 23 24  1  0
 24 25  1  0
 25 26  1  0
 26  2  1  0
 22  3  1  0
 20  9  1  0
 19 15  1  0
M  END
>  <ref_pdb>  (172) 
c0300a

>  <inchikey>  (172) 
KDAPNLCPIPSDQD-GOSISDBHSA-N

>  <original ID>  (172) 
KDAPNLCPIPSDQD-GOSISDBHSA-N

>  <generation_date>  (172) 
None

>  <alias>  (172) 
None

>  <tags>  (172) 
[]

>  <ref_mols>  (172) 
c0316a,c0441a

>  <ref_url>  (172) 
None

>  <submitter_name>  (172) 
None

>  <exports>  (172) 
['/opt/xchem-fragalysis-2/maxwin/CHIKV_HIPPO/hippo_prod/CHIKV_prod11_recipes/Recipe_1G8PPKY_poses.sdf', '/opt/xchem-fragalysis-2/maxwin/CHIKV_HIPPO/hippo_prod/CHIKV_prod11_recipes/Recipe_1GERJCJ_poses.sdf']

>  <original SMILES>  (172) 
C[C@@]1(c2nc(NC(=O)c3ccnc(NC4CC=CC4)c3)no2)CCOC1

>  <method>  (172) 
None

>  <submitter_email>  (172) 
None

>  <HIPPO ID>  (172) 
98844

$$$$
LRNNKMIDGWTQJR-GOSISDBHSA-N
     RDKit          3D

 27 30  0  0  0  0  0  0  0  0999 V2000
   14.0377    8.7421    9.1283 C   0  0  0  0  0  0  0  0  0  0  0  0
   13.2302    7.7756    9.7846 O   0  0  0  0  0  0  0  0  0  0  0  0
   13.7896    7.1153   10.9192 C   0  0  2  0  0  0  0  0  0  0  0  0
   14.5491    5.9433   10.4315 C   0  0  0  0  0  0  0  0  0  0  0  0
   15.6070    5.4377   11.0104 N   0  0  0  0  0  0  0  0  0  0  0  0
   15.3757    4.1141   10.8721 C   0  0  0  0  0  0  0  0  0  0  0  0
   15.9424    3.2710   11.7722 N   0  0  0  0  0  0  0  0  0  0  0  0
   17.0897    3.6101   12.4369 C   0  0  0  0  0  0  0  0  0  0  0  0
   17.9445    4.3922   12.0144 O   0  0  0  0  0  0  0  0  0  0  0  0
   17.3062    2.9099   13.7266 C   0  0  0  0  0  0  0  0  0  0  0  0
   18.6122    2.6035   14.0557 C   0  0  0  0  0  0  0  0  0  0  0  0
   18.8857    2.0308   15.2693 C   0  0  0  0  0  0  0  0  0  0  0  0
   17.9252    1.7251   16.1481 N   0  0  0  0  0  0  0  0  0  0  0  0
   16.6399    1.9788   15.8230 C   0  0  0  0  0  0  0  0  0  0  0  0
   15.6419    1.6975   16.7594 N   0  0  0  0  0  0  0  0  0  0  0  0
   16.0849    0.8956   17.9077 C   0  0  0  0  0  0  0  0  0  0  0  0
   14.9625    0.7590   18.9486 C   0  0  0  0  0  0  0  0  0  0  0  0
   15.2101   -0.5998   19.5201 C   0  0  0  0  0  0  0  0  0  0  0  0
   16.0238   -1.3261   18.7478 C   0  0  0  0  0  0  0  0  0  0  0  0
   16.4530   -0.5579   17.5409 C   0  0  0  0  0  0  0  0  0  0  0  0
   16.2913    2.5967   14.6244 C   0  0  0  0  0  0  0  0  0  0  0  0
   14.3949    3.7928   10.0277 N   0  0  0  0  0  0  0  0  0  0  0  0
   13.8571    5.0347    9.6822 O   0  0  0  0  0  0  0  0  0  0  0  0
   12.7171    6.4963   11.8585 C   0  0  0  0  0  0  0  0  0  0  0  0
   13.3058    6.6527   13.2435 C   0  0  0  0  0  0  0  0  0  0  0  0
   14.0993    7.8322   13.2252 O   0  0  0  0  0  0  0  0  0  0  0  0
   14.6287    7.9704   11.8897 C   0  0  0  0  0  0  0  0  0  0  0  0
  1  2  1  0
  3  2  1  6
  3  4  1  0
  4  5  2  0
  5  6  1  0
  6  7  1  0
  7  8  1  0
  8  9  2  0
  8 10  1  0
 10 11  2  0
 11 12  1  0
 12 13  2  0
 13 14  1  0
 14 15  1  0
 15 16  1  0
 16 17  1  0
 17 18  1  0
 18 19  2  0
 19 20  1  0
 14 21  2  0
  6 22  2  0
 22 23  1  0
  3 24  1  0
 24 25  1  0
 25 26  1  0
 26 27  1  0
 27  3  1  0
 23  4  1  0
 21 10  1  0
 20 16  1  0
M  END
>  <ref_pdb>  (173) 
c0300a

>  <inchikey>  (173) 
LRNNKMIDGWTQJR-GOSISDBHSA-N

>  <original ID>  (173) 
LRNNKMIDGWTQJR-GOSISDBHSA-N

>  <generation_date>  (173) 
None

>  <alias>  (173) 
None

>  <tags>  (173) 
[]

>  <ref_mols>  (173) 
c0316a,c0441a

>  <ref_url>  (173) 
None

>  <submitter_name>  (173) 
None

>  <exports>  (173) 
['/opt/xchem-fragalysis-2/maxwin/CHIKV_HIPPO/hippo_prod/CHIKV_prod11_recipes/Recipe_1G8PPKY_poses.sdf', '/opt/xchem-fragalysis-2/maxwin/CHIKV_HIPPO/hippo_prod/CHIKV_prod11_recipes/Recipe_1GERJCJ_poses.sdf']

>  <original SMILES>  (173) 
CO[C@]1(c2nc(NC(=O)c3ccnc(NC4CC=CC4)c3)no2)CCOC1

>  <method>  (173) 
None

>  <submitter_email>  (173) 
None

>  <HIPPO ID>  (173) 
98845

$$$$
LRNNKMIDGWTQJR-SFHVURJKSA-N
     RDKit          3D

 27 30  0  0  0  0  0  0  0  0999 V2000
   11.7523    6.1360   11.4409 C   0  0  0  0  0  0  0  0  0  0  0  0
   12.8514    6.9853   11.6903 O   0  0  0  0  0  0  0  0  0  0  0  0
   13.8572    7.2445   10.6943 C   0  0  1  0  0  0  0  0  0  0  0  0
   14.5256    5.9521   10.4552 C   0  0  0  0  0  0  0  0  0  0  0  0
   15.5155    5.4436   11.1381 N   0  0  0  0  0  0  0  0  0  0  0  0
   15.3213    4.1214   10.9556 C   0  0  0  0  0  0  0  0  0  0  0  0
   15.9045    3.2668   11.8308 N   0  0  0  0  0  0  0  0  0  0  0  0
   17.0654    3.6033   12.4724 C   0  0  0  0  0  0  0  0  0  0  0  0
   17.9169    4.3784   12.0308 O   0  0  0  0  0  0  0  0  0  0  0  0
   17.3001    2.9016   13.7562 C   0  0  0  0  0  0  0  0  0  0  0  0
   18.6094    2.5994   14.0751 C   0  0  0  0  0  0  0  0  0  0  0  0
   18.8894    2.0193   15.2838 C   0  0  0  0  0  0  0  0  0  0  0  0
   17.9336    1.7029   16.1654 N   0  0  0  0  0  0  0  0  0  0  0  0
   16.6461    1.9584   15.8497 C   0  0  0  0  0  0  0  0  0  0  0  0
   15.6510    1.6723   16.7876 N   0  0  0  0  0  0  0  0  0  0  0  0
   16.0969    0.8668   17.9304 C   0  0  0  0  0  0  0  0  0  0  0  0
   14.9794    0.7310   18.9760 C   0  0  0  0  0  0  0  0  0  0  0  0
   15.2286   -0.6288   19.5444 C   0  0  0  0  0  0  0  0  0  0  0  0
   16.0361   -1.3556   18.7660 C   0  0  0  0  0  0  0  0  0  0  0  0
   16.4588   -0.5864   17.5574 C   0  0  0  0  0  0  0  0  0  0  0  0
   16.2909    2.5831   14.6581 C   0  0  0  0  0  0  0  0  0  0  0  0
   14.3889    3.7997   10.0577 N   0  0  0  0  0  0  0  0  0  0  0  0
   13.8913    5.0412    9.6651 O   0  0  0  0  0  0  0  0  0  0  0  0
   13.5552    7.9990    9.4052 C   0  0  0  0  0  0  0  0  0  0  0  0
   14.7400    8.9281    9.2383 C   0  0  0  0  0  0  0  0  0  0  0  0
   15.0790    9.3245   10.5589 O   0  0  0  0  0  0  0  0  0  0  0  0
   14.8122    8.2052   11.4095 C   0  0  0  0  0  0  0  0  0  0  0  0
  1  2  1  0
  3  2  1  1
  3  4  1  0
  4  5  2  0
  5  6  1  0
  6  7  1  0
  7  8  1  0
  8  9  2  0
  8 10  1  0
 10 11  2  0
 11 12  1  0
 12 13  2  0
 13 14  1  0
 14 15  1  0
 15 16  1  0
 16 17  1  0
 17 18  1  0
 18 19  2  0
 19 20  1  0
 14 21  2  0
  6 22  2  0
 22 23  1  0
  3 24  1  0
 24 25  1  0
 25 26  1  0
 26 27  1  0
 27  3  1  0
 23  4  1  0
 21 10  1  0
 20 16  1  0
M  END
>  <ref_pdb>  (174) 
c0300a

>  <inchikey>  (174) 
LRNNKMIDGWTQJR-SFHVURJKSA-N

>  <original ID>  (174) 
LRNNKMIDGWTQJR-SFHVURJKSA-N

>  <generation_date>  (174) 
None

>  <alias>  (174) 
None

>  <tags>  (174) 
[]

>  <ref_mols>  (174) 
c0316a,c0441a

>  <ref_url>  (174) 
None

>  <submitter_name>  (174) 
None

>  <exports>  (174) 
['/opt/xchem-fragalysis-2/maxwin/CHIKV_HIPPO/hippo_prod/CHIKV_prod11_recipes/Recipe_1G8PPKY_poses.sdf', '/opt/xchem-fragalysis-2/maxwin/CHIKV_HIPPO/hippo_prod/CHIKV_prod11_recipes/Recipe_1GERJCJ_poses.sdf']

>  <original SMILES>  (174) 
CO[C@@]1(c2nc(NC(=O)c3ccnc(NC4CC=CC4)c3)no2)CCOC1

>  <method>  (174) 
None

>  <submitter_email>  (174) 
None

>  <HIPPO ID>  (174) 
98846

$$$$
ZHNPQRSQNILQOL-UHFFFAOYSA-N
     RDKit          3D

 21 22  0  0  0  0  0  0  0  0999 V2000
   19.7002    3.8800   10.1552 C   0  0  0  0  0  0  0  0  0  0  0  0
   18.6212    3.5459   11.1819 C   0  0  0  0  0  0  0  0  0  0  0  0
   18.2099    4.7623   11.7864 O   0  0  0  0  0  0  0  0  0  0  0  0
   17.1670    4.4115   12.5983 C   0  0  0  0  0  0  0  0  0  0  0  0
   15.8816    4.5853   12.1286 C   0  0  0  0  0  0  0  0  0  0  0  0
   14.8593    4.0955   12.9146 C   0  0  0  0  0  0  0  0  0  0  0  0
   15.1702    3.4677   14.1175 C   0  0  0  0  0  0  0  0  0  0  0  0
   16.5010    3.3637   14.5127 C   0  0  0  0  0  0  0  0  0  0  0  0
   16.8717    2.8357   15.8613 C   0  0  0  0  0  0  0  0  0  0  0  0
   16.6113    1.3702   16.0803 C   0  0  0  0  0  0  0  0  0  0  0  0
   15.7645    0.7113   15.4955 O   0  0  0  0  0  0  0  0  0  0  0  0
   17.4349    0.8347   17.0554 N   0  0  0  0  0  0  0  0  0  0  0  0
   17.0913   -0.3392   17.7510 C   0  0  0  0  0  0  0  0  0  0  0  0
   18.0569   -1.3196   17.9400 C   0  0  0  0  0  0  0  0  0  0  0  0
   17.8495   -2.4867   18.5928 N   0  0  0  0  0  0  0  0  0  0  0  0
   16.6269   -2.6647   19.1375 C   0  0  0  0  0  0  0  0  0  0  0  0
   15.6025   -1.7426   19.0329 C   0  0  0  0  0  0  0  0  0  0  0  0
   15.8367   -0.5725   18.3184 C   0  0  0  0  0  0  0  0  0  0  0  0
   14.7486    0.4202   18.3288 C   0  0  0  0  0  0  0  0  0  0  0  0
   14.8843    1.5163   18.8615 O   0  0  0  0  0  0  0  0  0  0  0  0
   17.5144    3.8449   13.7639 N   0  0  0  0  0  0  0  0  0  0  0  0
  1  2  1  0
  2  3  1  0
  3  4  1  0
  4  5  2  0
  5  6  1  0
  6  7  2  0
  7  8  1  0
  8  9  1  0
  9 10  1  0
 10 11  2  0
 10 12  1  0
 12 13  1  0
 13 14  2  0
 14 15  1  0
 15 16  2  0
 16 17  1  0
 17 18  2  0
 18 19  1  0
 19 20  2  0
  8 21  2  0
 21  4  1  0
 18 13  1  0
M  END
>  <ref_pdb>  (175) 
c0300a

>  <inchikey>  (175) 
ZHNPQRSQNILQOL-UHFFFAOYSA-N

>  <original ID>  (175) 
ZHNPQRSQNILQOL-UHFFFAOYSA-N

>  <generation_date>  (175) 
None

>  <alias>  (175) 
None

>  <tags>  (175) 
[]

>  <ref_mols>  (175) 
c0305a,c1118a

>  <ref_url>  (175) 
None

>  <submitter_name>  (175) 
None

>  <exports>  (175) 
nan

>  <original SMILES>  (175) 
CCOc1cccc(CC(=O)Nc2cnccc2C=O)n1

>  <method>  (175) 
None

>  <submitter_email>  (175) 
None

>  <HIPPO ID>  (175) 
99228

$$$$
VIJHPZZSSIQHNI-GFCCVEGCSA-N
     RDKit          3D

 22 24  0  0  0  0  0  0  0  0999 V2000
   18.6668    5.2270   13.3279 C   0  0  0  0  0  0  0  0  0  0  0  0
   18.6208    4.5786   12.0327 O   0  0  0  0  0  0  0  0  0  0  0  0
   17.6262    3.6087   12.1585 C   0  0  0  0  0  0  0  0  0  0  0  0
   16.4147    3.9804   11.5728 C   0  0  0  0  0  0  0  0  0  0  0  0
   15.2884    3.9081   12.3667 C   0  0  0  0  0  0  0  0  0  0  0  0
   15.4945    3.4906   13.6638 C   0  0  0  0  0  0  0  0  0  0  0  0
   16.6765    2.8716   14.0406 C   0  0  0  0  0  0  0  0  0  0  0  0
   17.7604    2.8734   13.2756 N   0  0  0  0  0  0  0  0  0  0  0  0
   16.7728    2.6807   15.5210 C   0  0  2  0  0  0  0  0  0  0  0  0
   16.5403    1.2622   15.9657 C   0  0  0  0  0  0  0  0  0  0  0  0
   15.6797    0.5241   15.5075 O   0  0  0  0  0  0  0  0  0  0  0  0
   17.4131    0.8498   16.9610 N   0  0  0  0  0  0  0  0  0  0  0  0
   17.1021   -0.2970   17.7215 C   0  0  0  0  0  0  0  0  0  0  0  0
   18.0375   -1.3135   17.8523 C   0  0  0  0  0  0  0  0  0  0  0  0
   17.8150   -2.4753   18.5109 N   0  0  0  0  0  0  0  0  0  0  0  0
   16.6072   -2.6149   19.1023 C   0  0  0  0  0  0  0  0  0  0  0  0
   15.6137   -1.6537   19.0574 C   0  0  0  0  0  0  0  0  0  0  0  0
   15.8717   -0.4792   18.3598 C   0  0  0  0  0  0  0  0  0  0  0  0
   14.8550    0.5854   18.4410 C   0  0  0  0  0  0  0  0  0  0  0  0
   15.1446    1.7082   18.8466 O   0  0  0  0  0  0  0  0  0  0  0  0
   15.6818    3.6493   15.9975 C   0  0  0  0  0  0  0  0  0  0  0  0
   14.6718    3.8039   14.8502 C   0  0  0  0  0  0  0  0  0  0  0  0
  1  2  1  0
  2  3  1  0
  3  4  2  0
  4  5  1  0
  5  6  2  0
  6  7  1  0
  7  8  2  0
  7  9  1  0
  9 10  1  6
 10 11  2  0
 10 12  1  0
 12 13  1  0
 13 14  2  0
 14 15  1  0
 15 16  2  0
 16 17  1  0
 17 18  2  0
 18 19  1  0
 19 20  2  0
  9 21  1  0
 21 22  1  0
  8  3  1  0
 18 13  1  0
 22  6  1  0
M  END
>  <ref_pdb>  (176) 
c0300a

>  <inchikey>  (176) 
VIJHPZZSSIQHNI-GFCCVEGCSA-N

>  <original ID>  (176) 
VIJHPZZSSIQHNI-GFCCVEGCSA-N

>  <generation_date>  (176) 
None

>  <alias>  (176) 
None

>  <tags>  (176) 
[]

>  <ref_mols>  (176) 
c0305a,c1118a

>  <ref_url>  (176) 
None

>  <submitter_name>  (176) 
None

>  <exports>  (176) 
nan

>  <original SMILES>  (176) 
COc1ccc2c(n1)[C@H](C(=O)Nc1cnccc1C=O)CC2

>  <method>  (176) 
None

>  <submitter_email>  (176) 
None

>  <HIPPO ID>  (176) 
99389

$$$$
VIJHPZZSSIQHNI-LBPRGKRZSA-N
     RDKit          3D

 22 24  0  0  0  0  0  0  0  0999 V2000
   19.8583    6.1830   14.6367 C   0  0  0  0  0  0  0  0  0  0  0  0
   19.2673    5.7010   13.4278 O   0  0  0  0  0  0  0  0  0  0  0  0
   18.0664    5.1452   13.6983 C   0  0  0  0  0  0  0  0  0  0  0  0
   16.9670    5.5035   12.9097 C   0  0  0  0  0  0  0  0  0  0  0  0
   15.8112    4.7894   13.0399 C   0  0  0  0  0  0  0  0  0  0  0  0
   15.8888    3.7571   13.9322 C   0  0  0  0  0  0  0  0  0  0  0  0
   16.9948    3.5179   14.7444 C   0  0  0  0  0  0  0  0  0  0  0  0
   18.1169    4.1890   14.6271 N   0  0  0  0  0  0  0  0  0  0  0  0
   17.0001    2.1510   15.3187 C   0  0  1  0  0  0  0  0  0  0  0  0
   16.4909    1.8980   16.6942 C   0  0  0  0  0  0  0  0  0  0  0  0
   15.3982    2.2957   17.0653 O   0  0  0  0  0  0  0  0  0  0  0  0
   17.3431    1.0348   17.3703 N   0  0  0  0  0  0  0  0  0  0  0  0
   16.9135   -0.1256   18.0570 C   0  0  0  0  0  0  0  0  0  0  0  0
   17.7187   -1.2600   17.8732 C   0  0  0  0  0  0  0  0  0  0  0  0
   17.4879   -2.4860   18.3874 N   0  0  0  0  0  0  0  0  0  0  0  0
   16.3886   -2.5967   19.1550 C   0  0  0  0  0  0  0  0  0  0  0  0
   15.5255   -1.5457   19.4091 C   0  0  0  0  0  0  0  0  0  0  0  0
   15.7950   -0.2833   18.8732 C   0  0  0  0  0  0  0  0  0  0  0  0
   14.9668    0.8304   19.3874 C   0  0  0  0  0  0  0  0  0  0  0  0
   14.0213    0.6454   20.1488 O   0  0  0  0  0  0  0  0  0  0  0  0
   15.9811    1.5530   14.3948 C   0  0  0  0  0  0  0  0  0  0  0  0
   14.9875    2.6117   13.9759 C   0  0  0  0  0  0  0  0  0  0  0  0
  1  2  1  0
  2  3  1  0
  3  4  2  0
  4  5  1  0
  5  6  2  0
  6  7  1  0
  7  8  2  0
  7  9  1  0
  9 10  1  1
 10 11  2  0
 10 12  1  0
 12 13  1  0
 13 14  2  0
 14 15  1  0
 15 16  2  0
 16 17  1  0
 17 18  2  0
 18 19  1  0
 19 20  2  0
  9 21  1  0
 21 22  1  0
  8  3  1  0
 18 13  1  0
 22  6  1  0
M  END
>  <ref_pdb>  (177) 
c0300a

>  <inchikey>  (177) 
VIJHPZZSSIQHNI-LBPRGKRZSA-N

>  <original ID>  (177) 
VIJHPZZSSIQHNI-LBPRGKRZSA-N

>  <generation_date>  (177) 
None

>  <alias>  (177) 
None

>  <tags>  (177) 
[]

>  <ref_mols>  (177) 
c0305a,c1118a

>  <ref_url>  (177) 
None

>  <submitter_name>  (177) 
None

>  <exports>  (177) 
nan

>  <original SMILES>  (177) 
COc1ccc2c(n1)[C@@H](C(=O)Nc1cnccc1C=O)CC2

>  <method>  (177) 
None

>  <submitter_email>  (177) 
None

>  <HIPPO ID>  (177) 
99390

$$$$
VJSOKNLFXQRYQN-UHFFFAOYSA-N
     RDKit          3D

 22 23  0  0  0  0  0  0  0  0999 V2000
   18.2413    3.6386   11.1509 C   0  0  0  0  0  0  0  0  0  0  0  0
   18.3042    3.6047   12.6232 C   0  0  0  0  0  0  0  0  0  0  0  0
   18.2495    4.9807   13.0074 O   0  0  0  0  0  0  0  0  0  0  0  0
   17.0607    5.0366   13.6994 C   0  0  0  0  0  0  0  0  0  0  0  0
   15.9193    5.2917   12.9492 C   0  0  0  0  0  0  0  0  0  0  0  0
   14.7569    4.6668   13.3536 C   0  0  0  0  0  0  0  0  0  0  0  0
   14.7998    3.8503   14.4793 C   0  0  0  0  0  0  0  0  0  0  0  0
   15.9745    3.7280   15.2179 C   0  0  0  0  0  0  0  0  0  0  0  0
   16.0792    2.8011   16.3908 C   0  0  0  0  0  0  0  0  0  0  0  0
   16.2987    1.3773   15.9578 C   0  0  0  0  0  0  0  0  0  0  0  0
   15.7057    0.8629   15.0201 O   0  0  0  0  0  0  0  0  0  0  0  0
   17.3265    0.7284   16.5940 N   0  0  0  0  0  0  0  0  0  0  0  0
   17.0787   -0.3944   17.4487 C   0  0  0  0  0  0  0  0  0  0  0  0
   16.0545   -0.5017   18.3963 C   0  0  0  0  0  0  0  0  0  0  0  0
   15.0181    0.5485   18.6587 C   0  0  0  0  0  0  0  0  0  0  0  0
   16.0070   -1.6729   19.1703 C   0  0  0  0  0  0  0  0  0  0  0  0
   16.9743   -2.6613   19.0078 C   0  0  0  0  0  0  0  0  0  0  0  0
   16.9914   -3.8667   19.8943 C   0  0  0  0  0  0  0  0  0  0  0  0
   17.9554   -2.5777   18.0850 N   0  0  0  0  0  0  0  0  0  0  0  0
   17.9967   -1.4609   17.3466 C   0  0  0  0  0  0  0  0  0  0  0  0
   19.0876   -1.3884   16.4534 N   0  0  0  0  0  0  0  0  0  0  0  0
   17.1032    4.3609   14.8615 N   0  0  0  0  0  0  0  0  0  0  0  0
  1  2  1  0
  2  3  1  0
  3  4  1  0
  4  5  2  0
  5  6  1  0
  6  7  2  0
  7  8  1  0
  8  9  1  0
  9 10  1  0
 10 11  2  0
 10 12  1  0
 12 13  1  0
 13 14  2  0
 14 15  1  0
 14 16  1  0
 16 17  2  0
 17 18  1  0
 17 19  1  0
 19 20  2  0
 20 21  1  0
  8 22  2  0
 22  4  1  0
 20 13  1  0
M  END
>  <ref_pdb>  (178) 
c0300a

>  <inchikey>  (178) 
VJSOKNLFXQRYQN-UHFFFAOYSA-N

>  <original ID>  (178) 
VJSOKNLFXQRYQN-UHFFFAOYSA-N

>  <generation_date>  (178) 
None

>  <alias>  (178) 
None

>  <tags>  (178) 
[]

>  <ref_mols>  (178) 
c0305a,c1118a

>  <ref_url>  (178) 
None

>  <submitter_name>  (178) 
None

>  <exports>  (178) 
nan

>  <original SMILES>  (178) 
CCOc1cccc(CC(=O)Nc2c(C)cc(C)nc2N)n1

>  <method>  (178) 
None

>  <submitter_email>  (178) 
None

>  <HIPPO ID>  (178) 
99664

$$$$
CADBEVWNDLQHRN-UHFFFAOYSA-N
     RDKit          3D

 22 23  0  0  0  0  0  0  0  0999 V2000
   16.3706    3.6768   10.5125 C   0  0  0  0  0  0  0  0  0  0  0  0
   17.7014    3.5396   11.2487 C   0  0  0  0  0  0  0  0  0  0  0  0
   18.0462    4.7652   11.9070 O   0  0  0  0  0  0  0  0  0  0  0  0
   17.3996    4.6776   13.1187 C   0  0  0  0  0  0  0  0  0  0  0  0
   16.1278    5.2157   13.2082 C   0  0  0  0  0  0  0  0  0  0  0  0
   15.3152    4.7453   14.2218 C   0  0  0  0  0  0  0  0  0  0  0  0
   15.8177    3.7877   15.0959 C   0  0  0  0  0  0  0  0  0  0  0  0
   17.1286    3.3329   14.9428 C   0  0  0  0  0  0  0  0  0  0  0  0
   17.6915    2.2517   15.8169 C   0  0  0  0  0  0  0  0  0  0  0  0
   16.8943    0.9763   15.7842 C   0  0  0  0  0  0  0  0  0  0  0  0
   15.7878    0.8841   15.2588 O   0  0  0  0  0  0  0  0  0  0  0  0
   17.4491   -0.0610   16.4879 N   0  0  0  0  0  0  0  0  0  0  0  0
   16.7733   -0.7241   17.5245 C   0  0  0  0  0  0  0  0  0  0  0  0
   17.3707   -1.8618   17.9581 N   0  0  0  0  0  0  0  0  0  0  0  0
   16.8845   -2.4004   19.1019 C   0  0  0  0  0  0  0  0  0  0  0  0
   17.3921   -3.7432   19.5327 C   0  0  0  0  0  0  0  0  0  0  0  0
   15.9703   -1.7392   19.9114 C   0  0  0  0  0  0  0  0  0  0  0  0
   15.4123   -0.5410   19.4750 C   0  0  0  0  0  0  0  0  0  0  0  0
   14.5577    0.2818   20.3889 C   0  0  0  0  0  0  0  0  0  0  0  0
   15.6887   -0.1036   18.1809 C   0  0  0  0  0  0  0  0  0  0  0  0
   15.0655    1.0936   17.7340 N   0  0  0  0  0  0  0  0  0  0  0  0
   17.9488    3.8131   13.9872 N   0  0  0  0  0  0  0  0  0  0  0  0
  1  2  1  0
  2  3  1  0
  3  4  1  0
  4  5  2  0
  5  6  1  0
  6  7  2  0
  7  8  1  0
  8  9  1  0
  9 10  1  0
 10 11  2  0
 10 12  1  0
 12 13  1  0
 13 14  2  0
 14 15  1  0
 15 16  1  0
 15 17  2  0
 17 18  1  0
 18 19  1  0
 18 20  2  0
 20 21  1  0
  8 22  2  0
 22  4  1  0
 20 13  1  0
M  END
>  <ref_pdb>  (179) 
c0300a

>  <inchikey>  (179) 
CADBEVWNDLQHRN-UHFFFAOYSA-N

>  <original ID>  (179) 
CADBEVWNDLQHRN-UHFFFAOYSA-N

>  <generation_date>  (179) 
None

>  <alias>  (179) 
None

>  <tags>  (179) 
[]

>  <ref_mols>  (179) 
c0305a,c1118a

>  <ref_url>  (179) 
None

>  <submitter_name>  (179) 
None

>  <exports>  (179) 
nan

>  <original SMILES>  (179) 
CCOc1cccc(CC(=O)Nc2nc(C)cc(C)c2N)n1

>  <method>  (179) 
None

>  <submitter_email>  (179) 
None

>  <HIPPO ID>  (179) 
99665

$$$$
JELULYXEMYQADH-UHFFFAOYSA-N
     RDKit          3D

 23 24  0  0  0  0  0  0  0  0999 V2000
   18.8346    5.7198   14.1269 C   0  0  0  0  0  0  0  0  0  0  0  0
   17.7587    5.5152   13.0795 C   0  0  0  0  0  0  0  0  0  0  0  0
   18.2649    4.6779   12.0168 O   0  0  0  0  0  0  0  0  0  0  0  0
   17.4936    3.5383   12.1582 C   0  0  0  0  0  0  0  0  0  0  0  0
   16.3120    3.5879   11.4375 C   0  0  0  0  0  0  0  0  0  0  0  0
   15.1832    3.1589   12.0960 C   0  0  0  0  0  0  0  0  0  0  0  0
   15.2952    2.6919   13.4067 C   0  0  0  0  0  0  0  0  0  0  0  0
   16.5420    2.5927   14.0036 C   0  0  0  0  0  0  0  0  0  0  0  0
   16.6563    2.4192   15.4801 C   0  0  0  0  0  0  0  0  0  0  0  0
   16.5121    1.0136   15.9722 C   0  0  0  0  0  0  0  0  0  0  0  0
   15.7849    0.1600   15.4852 O   0  0  0  0  0  0  0  0  0  0  0  0
   17.2296    0.8236   17.1505 N   0  0  0  0  0  0  0  0  0  0  0  0
   16.9230   -0.3621   17.8595 C   0  0  0  0  0  0  0  0  0  0  0  0
   15.8701   -0.3816   18.7784 C   0  0  0  0  0  0  0  0  0  0  0  0
   15.0143    0.8312   18.9646 C   0  0  0  0  0  0  0  0  0  0  0  0
   13.7930    0.6510   19.5424 N   0  0  0  0  0  0  0  0  0  0  0  0
   15.3740    1.9513   18.6125 O   0  0  0  0  0  0  0  0  0  0  0  0
   15.6384   -1.5493   19.5017 C   0  0  0  0  0  0  0  0  0  0  0  0
   16.4420   -2.6540   19.2629 C   0  0  0  0  0  0  0  0  0  0  0  0
   17.4361   -2.6818   18.3526 N   0  0  0  0  0  0  0  0  0  0  0  0
   17.6471   -1.5367   17.6688 C   0  0  0  0  0  0  0  0  0  0  0  0
   18.9928   -1.6397   16.5963 Cl  0  0  0  0  0  0  0  0  0  0  0  0
   17.6640    2.9550   13.3608 N   0  0  0  0  0  0  0  0  0  0  0  0
  1  2  1  0
  2  3  1  0
  3  4  1  0
  4  5  2  0
  5  6  1  0
  6  7  2  0
  7  8  1  0
  8  9  1  0
  9 10  1  0
 10 11  2  0
 10 12  1  0
 12 13  1  0
 13 14  2  0
 14 15  1  0
 15 16  1  0
 15 17  2  0
 14 18  1  0
 18 19  2  0
 19 20  1  0
 20 21  2  0
 21 22  1  0
  8 23  2  0
 23  4  1  0
 21 13  1  0
M  END
>  <ref_pdb>  (180) 
c0300a

>  <inchikey>  (180) 
JELULYXEMYQADH-UHFFFAOYSA-N

>  <original ID>  (180) 
JELULYXEMYQADH-UHFFFAOYSA-N

>  <generation_date>  (180) 
None

>  <alias>  (180) 
None

>  <tags>  (180) 
[]

>  <ref_mols>  (180) 
c0305a,c1118a

>  <ref_url>  (180) 
None

>  <submitter_name>  (180) 
None

>  <exports>  (180) 
nan

>  <original SMILES>  (180) 
CCOc1cccc(CC(=O)Nc2c(C(N)=O)ccnc2Cl)n1

>  <method>  (180) 
None

>  <submitter_email>  (180) 
None

>  <HIPPO ID>  (180) 
100012

$$$$
JPADOZSEHHWQDT-GFCCVEGCSA-N
     RDKit          3D

 23 25  0  0  0  0  0  0  0  0999 V2000
   18.5320    3.4373   11.2658 C   0  0  0  0  0  0  0  0  0  0  0  0
   18.4019    4.7570   11.7338 O   0  0  0  0  0  0  0  0  0  0  0  0
   17.3806    4.6611   12.6213 C   0  0  0  0  0  0  0  0  0  0  0  0
   16.1263    5.0613   12.1691 C   0  0  0  0  0  0  0  0  0  0  0  0
   15.0764    4.8833   13.0236 C   0  0  0  0  0  0  0  0  0  0  0  0
   15.3943    4.3374   14.2450 C   0  0  0  0  0  0  0  0  0  0  0  0
   16.6676    3.8829   14.5722 C   0  0  0  0  0  0  0  0  0  0  0  0
   17.7136    4.0910   13.7948 N   0  0  0  0  0  0  0  0  0  0  0  0
   16.7182    3.3164   15.9662 C   0  0  2  0  0  0  0  0  0  0  0  0
   16.5856    1.7982   16.0672 C   0  0  0  0  0  0  0  0  0  0  0  0
   16.4559    1.0565   15.1066 O   0  0  0  0  0  0  0  0  0  0  0  0
   16.6528    1.3486   17.3750 N   0  0  0  0  0  0  0  0  0  0  0  0
   16.6300   -0.0163   17.7689 C   0  0  0  0  0  0  0  0  0  0  0  0
   15.7761   -0.3816   18.8178 C   0  0  0  0  0  0  0  0  0  0  0  0
   14.7153    0.5423   19.3439 C   0  0  0  0  0  0  0  0  0  0  0  0
   15.9076   -1.6584   19.3644 C   0  0  0  0  0  0  0  0  0  0  0  0
   16.8573   -2.5314   18.8485 C   0  0  0  0  0  0  0  0  0  0  0  0
   17.0909   -3.8536   19.5147 C   0  0  0  0  0  0  0  0  0  0  0  0
   17.6522   -2.2144   17.8001 N   0  0  0  0  0  0  0  0  0  0  0  0
   17.5319   -0.9813   17.2672 C   0  0  0  0  0  0  0  0  0  0  0  0
   18.4965   -0.6350   16.2970 N   0  0  0  0  0  0  0  0  0  0  0  0
   15.4954    4.0375   16.5481 C   0  0  0  0  0  0  0  0  0  0  0  0
   14.4990    4.1601   15.3867 C   0  0  0  0  0  0  0  0  0  0  0  0
  1  2  1  0
  2  3  1  0
  3  4  2  0
  4  5  1  0
  5  6  2  0
  6  7  1  0
  7  8  2  0
  7  9  1  0
  9 10  1  6
 10 11  2  0
 10 12  1  0
 12 13  1  0
 13 14  2  0
 14 15  1  0
 14 16  1  0
 16 17  2  0
 17 18  1  0
 17 19  1  0
 19 20  2  0
 20 21  1  0
  9 22  1  0
 22 23  1  0
  8  3  1  0
 20 13  1  0
 23  6  1  0
M  END
>  <ref_pdb>  (181) 
c0300a

>  <inchikey>  (181) 
JPADOZSEHHWQDT-GFCCVEGCSA-N

>  <original ID>  (181) 
JPADOZSEHHWQDT-GFCCVEGCSA-N

>  <generation_date>  (181) 
None

>  <alias>  (181) 
None

>  <tags>  (181) 
[]

>  <ref_mols>  (181) 
c0305a,c1118a

>  <ref_url>  (181) 
None

>  <submitter_name>  (181) 
None

>  <exports>  (181) 
nan

>  <original SMILES>  (181) 
COc1ccc2c(n1)[C@H](C(=O)Nc1c(C)cc(C)nc1N)CC2

>  <method>  (181) 
None

>  <submitter_email>  (181) 
None

>  <HIPPO ID>  (181) 
100564

$$$$
JPADOZSEHHWQDT-LBPRGKRZSA-N
     RDKit          3D

 23 25  0  0  0  0  0  0  0  0999 V2000
   16.0957    6.1130   12.1000 C   0  0  0  0  0  0  0  0  0  0  0  0
   16.5876    4.9566   11.4503 O   0  0  0  0  0  0  0  0  0  0  0  0
   16.8580    4.0019   12.4087 C   0  0  0  0  0  0  0  0  0  0  0  0
   18.0459    3.3626   12.1710 C   0  0  0  0  0  0  0  0  0  0  0  0
   18.6397    2.7644   13.2502 C   0  0  0  0  0  0  0  0  0  0  0  0
   18.0327    2.8338   14.4574 C   0  0  0  0  0  0  0  0  0  0  0  0
   16.7203    3.2282   14.5333 C   0  0  0  0  0  0  0  0  0  0  0  0
   16.1247    3.9186   13.5524 N   0  0  0  0  0  0  0  0  0  0  0  0
   16.2454    2.9348   15.9370 C   0  0  1  0  0  0  0  0  0  0  0  0
   16.0270    1.4318   16.1657 C   0  0  0  0  0  0  0  0  0  0  0  0
   15.9846    0.5992   15.2716 O   0  0  0  0  0  0  0  0  0  0  0  0
   15.9984    1.0957   17.4972 N   0  0  0  0  0  0  0  0  0  0  0  0
   16.2354   -0.1948   18.0298 C   0  0  0  0  0  0  0  0  0  0  0  0
   15.5567   -0.5371   19.2008 C   0  0  0  0  0  0  0  0  0  0  0  0
   14.5407    0.3770   19.8199 C   0  0  0  0  0  0  0  0  0  0  0  0
   15.8545   -1.7598   19.8051 C   0  0  0  0  0  0  0  0  0  0  0  0
   16.7805   -2.6167   19.2220 C   0  0  0  0  0  0  0  0  0  0  0  0
   17.1000   -3.9312   19.8629 C   0  0  0  0  0  0  0  0  0  0  0  0
   17.4379   -2.3127   18.0845 N   0  0  0  0  0  0  0  0  0  0  0  0
   17.1788   -1.1144   17.5240 C   0  0  0  0  0  0  0  0  0  0  0  0
   18.0658   -0.7960   16.4943 N   0  0  0  0  0  0  0  0  0  0  0  0
   17.5765    3.2721   16.6542 C   0  0  0  0  0  0  0  0  0  0  0  0
   18.6500    2.6017   15.7831 C   0  0  0  0  0  0  0  0  0  0  0  0
  1  2  1  0
  2  3  1  0
  3  4  2  0
  4  5  1  0
  5  6  2  0
  6  7  1  0
  7  8  2  0
  7  9  1  0
  9 10  1  6
 10 11  2  0
 10 12  1  0
 12 13  1  0
 13 14  2  0
 14 15  1  0
 14 16  1  0
 16 17  2  0
 17 18  1  0
 17 19  1  0
 19 20  2  0
 20 21  1  0
  9 22  1  0
 22 23  1  0
  8  3  1  0
 20 13  1  0
 23  6  1  0
M  END
>  <ref_pdb>  (182) 
c0300a

>  <inchikey>  (182) 
JPADOZSEHHWQDT-LBPRGKRZSA-N

>  <original ID>  (182) 
JPADOZSEHHWQDT-LBPRGKRZSA-N

>  <generation_date>  (182) 
None

>  <alias>  (182) 
None

>  <tags>  (182) 
[]

>  <ref_mols>  (182) 
c0305a,c1118a

>  <ref_url>  (182) 
None

>  <submitter_name>  (182) 
None

>  <exports>  (182) 
nan

>  <original SMILES>  (182) 
COc1ccc2c(n1)[C@@H](C(=O)Nc1c(C)cc(C)nc1N)CC2

>  <method>  (182) 
None

>  <submitter_email>  (182) 
None

>  <HIPPO ID>  (182) 
100565

$$$$
IWXKXWVDDUMLMO-GFCCVEGCSA-N
     RDKit          3D

 23 25  0  0  0  0  0  0  0  0999 V2000
   18.6073    5.1881   13.2462 C   0  0  0  0  0  0  0  0  0  0  0  0
   18.6318    4.4845   11.9891 O   0  0  0  0  0  0  0  0  0  0  0  0
   17.6523    3.5066   12.1478 C   0  0  0  0  0  0  0  0  0  0  0  0
   16.4347    3.8536   11.5644 C   0  0  0  0  0  0  0  0  0  0  0  0
   15.3194    3.7350   12.3612 C   0  0  0  0  0  0  0  0  0  0  0  0
   15.5335    3.2663   13.6432 C   0  0  0  0  0  0  0  0  0  0  0  0
   16.7205    2.6550   14.0120 C   0  0  0  0  0  0  0  0  0  0  0  0
   17.8166    2.7721   13.2700 N   0  0  0  0  0  0  0  0  0  0  0  0
   16.7763    2.3230   15.4726 C   0  0  2  0  0  0  0  0  0  0  0  0
   16.6455    0.8429   15.8133 C   0  0  0  0  0  0  0  0  0  0  0  0
   15.6182    0.1988   15.6300 O   0  0  0  0  0  0  0  0  0  0  0  0
   17.7568    0.2640   16.4581 N   0  0  0  0  0  0  0  0  0  0  0  0
   17.3766   -0.3909   17.6641 C   0  0  0  0  0  0  0  0  0  0  0  0
   17.5767   -1.7175   17.8233 N   0  0  0  0  0  0  0  0  0  0  0  0
   16.8750   -2.2917   18.8351 C   0  0  0  0  0  0  0  0  0  0  0  0
   17.2015   -3.7002   19.2360 C   0  0  0  0  0  0  0  0  0  0  0  0
   15.9076   -1.6049   19.5661 C   0  0  0  0  0  0  0  0  0  0  0  0
   15.7548   -0.2330   19.3883 C   0  0  0  0  0  0  0  0  0  0  0  0
   14.6366    0.5095   20.0468 C   0  0  0  0  0  0  0  0  0  0  0  0
   16.6731    0.4154   18.5790 C   0  0  0  0  0  0  0  0  0  0  0  0
   16.7279    1.8281   18.5076 N   0  0  0  0  0  0  0  0  0  0  0  0
   15.5896    3.1591   15.9958 C   0  0  0  0  0  0  0  0  0  0  0  0
   14.6920    3.5515   14.8185 C   0  0  0  0  0  0  0  0  0  0  0  0
  1  2  1  0
  2  3  1  0
  3  4  2  0
  4  5  1  0
  5  6  2  0
  6  7  1  0
  7  8  2  0
  7  9  1  0
  9 10  1  6
 10 11  2  0
 10 12  1  0
 12 13  1  0
 13 14  2  0
 14 15  1  0
 15 16  1  0
 15 17  2  0
 17 18  1  0
 18 19  1  0
 18 20  2  0
 20 21  1  0
  9 22  1  0
 22 23  1  0
  8  3  1  0
 20 13  1  0
 23  6  1  0
M  END
>  <ref_pdb>  (183) 
c0300a

>  <inchikey>  (183) 
IWXKXWVDDUMLMO-GFCCVEGCSA-N

>  <original ID>  (183) 
IWXKXWVDDUMLMO-GFCCVEGCSA-N

>  <generation_date>  (183) 
None

>  <alias>  (183) 
None

>  <tags>  (183) 
[]

>  <ref_mols>  (183) 
c0305a,c1118a

>  <ref_url>  (183) 
None

>  <submitter_name>  (183) 
None

>  <exports>  (183) 
nan

>  <original SMILES>  (183) 
COc1ccc2c(n1)[C@H](C(=O)Nc1nc(C)cc(C)c1N)CC2

>  <method>  (183) 
None

>  <submitter_email>  (183) 
None

>  <HIPPO ID>  (183) 
100566

$$$$
IWXKXWVDDUMLMO-LBPRGKRZSA-N
     RDKit          3D

 23 25  0  0  0  0  0  0  0  0999 V2000
   19.8410    6.1831   14.5902 C   0  0  0  0  0  0  0  0  0  0  0  0
   19.2734    5.6198   13.4048 O   0  0  0  0  0  0  0  0  0  0  0  0
   18.1213    5.0208   13.7695 C   0  0  0  0  0  0  0  0  0  0  0  0
   16.9287    5.6933   13.5144 C   0  0  0  0  0  0  0  0  0  0  0  0
   15.7813    5.1540   14.0024 C   0  0  0  0  0  0  0  0  0  0  0  0
   15.9278    3.9192   14.5820 C   0  0  0  0  0  0  0  0  0  0  0  0
   17.1548    3.2473   14.7129 C   0  0  0  0  0  0  0  0  0  0  0  0
   18.2891    3.8204   14.3461 N   0  0  0  0  0  0  0  0  0  0  0  0
   16.9616    1.7696   14.4715 C   0  0  1  0  0  0  0  0  0  0  0  0
   16.8818    0.7168   15.5591 C   0  0  0  0  0  0  0  0  0  0  0  0
   15.9292   -0.0745   15.5970 O   0  0  0  0  0  0  0  0  0  0  0  0
   17.9192    0.5316   16.4524 N   0  0  0  0  0  0  0  0  0  0  0  0
   17.4808   -0.1395   17.6384 C   0  0  0  0  0  0  0  0  0  0  0  0
   17.8972   -1.4036   17.8929 N   0  0  0  0  0  0  0  0  0  0  0  0
   17.1762   -2.0724   18.8431 C   0  0  0  0  0  0  0  0  0  0  0  0
   17.5584   -3.4864   19.1816 C   0  0  0  0  0  0  0  0  0  0  0  0
   16.0887   -1.5198   19.5251 C   0  0  0  0  0  0  0  0  0  0  0  0
   15.7179   -0.2034   19.2740 C   0  0  0  0  0  0  0  0  0  0  0  0
   14.5187    0.4158   19.9200 C   0  0  0  0  0  0  0  0  0  0  0  0
   16.4744    0.5323   18.3713 C   0  0  0  0  0  0  0  0  0  0  0  0
   16.0286    1.8363   18.0082 N   0  0  0  0  0  0  0  0  0  0  0  0
   15.5619    1.9037   13.8347 C   0  0  0  0  0  0  0  0  0  0  0  0
   14.8324    2.9594   14.6197 C   0  0  0  0  0  0  0  0  0  0  0  0
  1  2  1  0
  2  3  1  0
  3  4  2  0
  4  5  1  0
  5  6  2  0
  6  7  1  0
  7  8  2  0
  7  9  1  0
  9 10  1  1
 10 11  2  0
 10 12  1  0
 12 13  1  0
 13 14  2  0
 14 15  1  0
 15 16  1  0
 15 17  2  0
 17 18  1  0
 18 19  1  0
 18 20  2  0
 20 21  1  0
  9 22  1  0
 22 23  1  0
  8  3  1  0
 20 13  1  0
 23  6  1  0
M  END
>  <ref_pdb>  (184) 
c0300a

>  <inchikey>  (184) 
IWXKXWVDDUMLMO-LBPRGKRZSA-N

>  <original ID>  (184) 
IWXKXWVDDUMLMO-LBPRGKRZSA-N

>  <generation_date>  (184) 
None

>  <alias>  (184) 
None

>  <tags>  (184) 
[]

>  <ref_mols>  (184) 
c0305a,c1118a

>  <ref_url>  (184) 
None

>  <submitter_name>  (184) 
None

>  <exports>  (184) 
nan

>  <original SMILES>  (184) 
COc1ccc2c(n1)[C@@H](C(=O)Nc1nc(C)cc(C)c1N)CC2

>  <method>  (184) 
None

>  <submitter_email>  (184) 
None

>  <HIPPO ID>  (184) 
100567

$$$$
FWVNRWMKWQUQRA-SNVBAGLBSA-N
     RDKit          3D

 24 26  0  0  0  0  0  0  0  0999 V2000
   18.6487    5.2037   13.2986 C   0  0  0  0  0  0  0  0  0  0  0  0
   18.5868    4.5865   11.9887 O   0  0  0  0  0  0  0  0  0  0  0  0
   17.5781    3.6292   12.0952 C   0  0  0  0  0  0  0  0  0  0  0  0
   16.3757    4.0097   11.4985 C   0  0  0  0  0  0  0  0  0  0  0  0
   15.2362    3.9301   12.2735 C   0  0  0  0  0  0  0  0  0  0  0  0
   15.4226    3.5009   13.5691 C   0  0  0  0  0  0  0  0  0  0  0  0
   16.5966    2.8722   13.9548 C   0  0  0  0  0  0  0  0  0  0  0  0
   17.6893    2.8828   13.2036 N   0  0  0  0  0  0  0  0  0  0  0  0
   16.6883    2.7065   15.4382 C   0  0  2  0  0  0  0  0  0  0  0  0
   16.4882    1.2926   15.9259 C   0  0  0  0  0  0  0  0  0  0  0  0
   15.8174    0.4394   15.3648 O   0  0  0  0  0  0  0  0  0  0  0  0
   17.1211    1.0760   17.1486 N   0  0  0  0  0  0  0  0  0  0  0  0
   16.8588   -0.1675   17.7846 C   0  0  0  0  0  0  0  0  0  0  0  0
   15.8074   -0.2816   18.6964 C   0  0  0  0  0  0  0  0  0  0  0  0
   14.9145    0.8832   18.9355 C   0  0  0  0  0  0  0  0  0  0  0  0
   13.6737    0.6354   19.4106 N   0  0  0  0  0  0  0  0  0  0  0  0
   15.2567    2.0355   18.7056 O   0  0  0  0  0  0  0  0  0  0  0  0
   15.6092   -1.4898   19.3635 C   0  0  0  0  0  0  0  0  0  0  0  0
   16.4567   -2.5483   19.0839 C   0  0  0  0  0  0  0  0  0  0  0  0
   17.4607   -2.4892   18.1866 N   0  0  0  0  0  0  0  0  0  0  0  0
   17.6333   -1.3034   17.5572 C   0  0  0  0  0  0  0  0  0  0  0  0
   19.0202   -1.3021   16.5355 Cl  0  0  0  0  0  0  0  0  0  0  0  0
   15.6203    3.7087   15.8916 C   0  0  0  0  0  0  0  0  0  0  0  0
   14.6018    3.8373   14.7509 C   0  0  0  0  0  0  0  0  0  0  0  0
  1  2  1  0
  2  3  1  0
  3  4  2  0
  4  5  1  0
  5  6  2  0
  6  7  1  0
  7  8  2  0
  7  9  1  0
  9 10  1  6
 10 11  2  0
 10 12  1  0
 12 13  1  0
 13 14  2  0
 14 15  1  0
 15 16  1  0
 15 17  2  0
 14 18  1  0
 18 19  2  0
 19 20  1  0
 20 21  2  0
 21 22  1  0
  9 23  1  0
 23 24  1  0
  8  3  1  0
 21 13  1  0
 24  6  1  0
M  END
>  <ref_pdb>  (185) 
c0300a

>  <inchikey>  (185) 
FWVNRWMKWQUQRA-SNVBAGLBSA-N

>  <original ID>  (185) 
FWVNRWMKWQUQRA-SNVBAGLBSA-N

>  <generation_date>  (185) 
None

>  <alias>  (185) 
None

>  <tags>  (185) 
[]

>  <ref_mols>  (185) 
c0305a,c1118a

>  <ref_url>  (185) 
None

>  <submitter_name>  (185) 
None

>  <exports>  (185) 
nan

>  <original SMILES>  (185) 
COc1ccc2c(n1)[C@H](C(=O)Nc1c(C(N)=O)ccnc1Cl)CC2

>  <method>  (185) 
None

>  <submitter_email>  (185) 
None

>  <HIPPO ID>  (185) 
101012

$$$$
FWVNRWMKWQUQRA-JTQLQIEISA-N
     RDKit          3D

 24 26  0  0  0  0  0  0  0  0999 V2000
   18.4103    3.5411   11.5823 C   0  0  0  0  0  0  0  0  0  0  0  0
   18.6396    4.8745   12.0124 O   0  0  0  0  0  0  0  0  0  0  0  0
   17.8698    5.0482   13.1373 C   0  0  0  0  0  0  0  0  0  0  0  0
   16.7123    5.7952   12.9184 C   0  0  0  0  0  0  0  0  0  0  0  0
   15.6001    5.4429   13.6247 C   0  0  0  0  0  0  0  0  0  0  0  0
   15.7421    4.2878   14.3617 C   0  0  0  0  0  0  0  0  0  0  0  0
   16.9759    3.6973   14.6615 C   0  0  0  0  0  0  0  0  0  0  0  0
   18.0924    4.1427   14.1062 N   0  0  0  0  0  0  0  0  0  0  0  0
   16.8172    2.2112   14.8734 C   0  0  1  0  0  0  0  0  0  0  0  0
   16.5005    1.7401   16.2687 C   0  0  0  0  0  0  0  0  0  0  0  0
   15.6456    2.2920   16.9435 O   0  0  0  0  0  0  0  0  0  0  0  0
   17.2077    0.6274   16.6499 N   0  0  0  0  0  0  0  0  0  0  0  0
   16.9076   -0.3395   17.6563 C   0  0  0  0  0  0  0  0  0  0  0  0
   15.9393   -0.3173   18.6692 C   0  0  0  0  0  0  0  0  0  0  0  0
   15.1590    0.8295   19.2052 C   0  0  0  0  0  0  0  0  0  0  0  0
   15.8274    2.0032   19.4181 N   0  0  0  0  0  0  0  0  0  0  0  0
   14.0230    0.7051   19.6416 O   0  0  0  0  0  0  0  0  0  0  0  0
   15.7219   -1.4834   19.4305 C   0  0  0  0  0  0  0  0  0  0  0  0
   16.4934   -2.6086   19.2205 C   0  0  0  0  0  0  0  0  0  0  0  0
   17.4739   -2.6597   18.3093 N   0  0  0  0  0  0  0  0  0  0  0  0
   17.6461   -1.5395   17.5767 C   0  0  0  0  0  0  0  0  0  0  0  0
   18.9454   -1.7329   16.4431 Cl  0  0  0  0  0  0  0  0  0  0  0  0
   15.5485    2.0461   14.0523 C   0  0  0  0  0  0  0  0  0  0  0  0
   14.6868    3.2587   14.3674 C   0  0  0  0  0  0  0  0  0  0  0  0
  1  2  1  0
  2  3  1  0
  3  4  2  0
  4  5  1  0
  5  6  2  0
  6  7  1  0
  7  8  2  0
  7  9  1  0
  9 10  1  1
 10 11  2  0
 10 12  1  0
 12 13  1  0
 13 14  2  0
 14 15  1  0
 15 16  1  0
 15 17  2  0
 14 18  1  0
 18 19  2  0
 19 20  1  0
 20 21  2  0
 21 22  1  0
  9 23  1  0
 23 24  1  0
  8  3  1  0
 21 13  1  0
 24  6  1  0
M  END
>  <ref_pdb>  (186) 
c0300a

>  <inchikey>  (186) 
FWVNRWMKWQUQRA-JTQLQIEISA-N

>  <original ID>  (186) 
FWVNRWMKWQUQRA-JTQLQIEISA-N

>  <generation_date>  (186) 
None

>  <alias>  (186) 
None

>  <tags>  (186) 
[]

>  <ref_mols>  (186) 
c0305a,c1118a

>  <ref_url>  (186) 
None

>  <submitter_name>  (186) 
None

>  <exports>  (186) 
nan

>  <original SMILES>  (186) 
COc1ccc2c(n1)[C@@H](C(=O)Nc1c(C(N)=O)ccnc1Cl)CC2

>  <method>  (186) 
None

>  <submitter_email>  (186) 
None

>  <HIPPO ID>  (186) 
101013

$$$$
QRDIGKZLTSUQGD-UHFFFAOYSA-N
     RDKit          3D

 13 14  0  0  0  0  0  0  0  0999 V2000
   13.8797    7.1650    9.7419 C   0  0  0  0  0  0  0  0  0  0  0  0
   14.4362    8.5489   10.0735 C   0  0  0  0  0  0  0  0  0  0  0  0
   15.6453    8.9201    9.2560 C   0  0  0  0  0  0  0  0  0  0  0  0
   14.7332    8.7714   11.5482 C   0  0  0  0  0  0  0  0  0  0  0  0
   14.9941    7.6796   12.4090 C   0  0  0  0  0  0  0  0  0  0  0  0
   15.2188    7.8394   13.7774 C   0  0  0  0  0  0  0  0  0  0  0  0
   15.1736    9.1011   14.3699 C   0  0  0  0  0  0  0  0  0  0  0  0
   14.9025   10.2111   13.5680 C   0  0  0  0  0  0  0  0  0  0  0  0
   14.7419   11.5195   13.9473 N   0  0  0  0  0  0  0  0  0  0  0  0
   14.4262   12.1594   12.8520 C   0  0  0  0  0  0  0  0  0  0  0  0
   14.4674   11.3227   11.7821 N   0  0  0  0  0  0  0  0  0  0  0  0
   14.3127   11.7554   10.4420 C   0  0  0  0  0  0  0  0  0  0  0  0
   14.7253   10.0407   12.1961 C   0  0  0  0  0  0  0  0  0  0  0  0
  1  2  1  0
  2  3  1  0
  2  4  1  0
  4  5  2  0
  5  6  1  0
  6  7  2  0
  7  8  1  0
  8  9  1  0
  9 10  2  0
 10 11  1  0
 11 12  1  0
 11 13  1  0
 13  4  1  0
 13  8  2  0
M  END
>  <ref_pdb>  (187) 
c0300a

>  <inchikey>  (187) 
QRDIGKZLTSUQGD-UHFFFAOYSA-N

>  <original ID>  (187) 
QRDIGKZLTSUQGD-UHFFFAOYSA-N

>  <generation_date>  (187) 
None

>  <alias>  (187) 
None

>  <tags>  (187) 
[]

>  <ref_mols>  (187) 
c0894a,c1134a

>  <ref_url>  (187) 
None

>  <submitter_name>  (187) 
None

>  <exports>  (187) 
nan

>  <original SMILES>  (187) 
CC(C)c1cccc2ncn(C)c12

>  <method>  (187) 
None

>  <submitter_email>  (187) 
None

>  <HIPPO ID>  (187) 
101570

$$$$
WOWPZLIHNPVFBH-UHFFFAOYSA-N
     RDKit          3D

 14 15  0  0  0  0  0  0  0  0999 V2000
   14.3593   12.0322   10.6832 C   0  0  0  0  0  0  0  0  0  0  0  0
   14.5005   11.3914   11.9352 N   0  0  0  0  0  0  0  0  0  0  0  0
   14.4388   12.1068   13.0909 C   0  0  0  0  0  0  0  0  0  0  0  0
   14.7274   11.3531   14.1106 N   0  0  0  0  0  0  0  0  0  0  0  0
   14.8714   10.0973   13.5855 C   0  0  0  0  0  0  0  0  0  0  0  0
   15.1215    8.9334   14.3088 C   0  0  0  0  0  0  0  0  0  0  0  0
   15.1659    7.7326   13.6284 C   0  0  0  0  0  0  0  0  0  0  0  0
   14.9511    7.6992   12.2516 C   0  0  0  0  0  0  0  0  0  0  0  0
   14.6777    8.8451   11.4284 C   0  0  0  0  0  0  0  0  0  0  0  0
   14.4719    8.5985    9.8963 C   0  0  0  0  0  0  0  0  0  0  0  0
   15.8256    8.9175    9.2900 C   0  0  0  0  0  0  0  0  0  0  0  0
   13.4863    9.3790    9.0168 C   0  0  0  0  0  0  0  0  0  0  0  0
   13.9915    7.1389    9.6834 C   0  0  0  0  0  0  0  0  0  0  0  0
   14.7004   10.0601   12.1902 C   0  0  0  0  0  0  0  0  0  0  0  0
  1  2  1  0
  2  3  1  0
  3  4  2  0
  4  5  1  0
  5  6  2  0
  6  7  1  0
  7  8  2  0
  8  9  1  0
  9 10  1  0
 10 11  1  0
 10 12  1  0
 10 13  1  0
  9 14  2  0
 14  2  1  0
 14  5  1  0
M  END
>  <ref_pdb>  (188) 
c0300a

>  <inchikey>  (188) 
WOWPZLIHNPVFBH-UHFFFAOYSA-N

>  <original ID>  (188) 
WOWPZLIHNPVFBH-UHFFFAOYSA-N

>  <generation_date>  (188) 
None

>  <alias>  (188) 
None

>  <tags>  (188) 
[]

>  <ref_mols>  (188) 
c0894a,c1134a

>  <ref_url>  (188) 
None

>  <submitter_name>  (188) 
None

>  <exports>  (188) 
nan

>  <original SMILES>  (188) 
Cn1cnc2cccc(C(C)(C)C)c21

>  <method>  (188) 
None

>  <submitter_email>  (188) 
None

>  <HIPPO ID>  (188) 
101590

$$$$
ONCPZYCPBHTNCE-VIFPVBQESA-N
     RDKit          3D

 14 15  0  0  0  0  0  0  0  0999 V2000
   12.9672    6.3338   10.5238 C   0  0  0  0  0  0  0  0  0  0  0  0
   14.0034    7.0787    9.7161 C   0  0  0  0  0  0  0  0  0  0  0  0
   14.4486    8.4893   10.1294 C   0  0  2  0  0  0  0  0  0  0  0  0
   15.6261    8.9471    9.2892 C   0  0  0  0  0  0  0  0  0  0  0  0
   14.7650    8.7355   11.5923 C   0  0  0  0  0  0  0  0  0  0  0  0
   15.1252    7.6780   12.4581 C   0  0  0  0  0  0  0  0  0  0  0  0
   15.3404    7.8598   13.8248 C   0  0  0  0  0  0  0  0  0  0  0  0
   15.2223    9.1207   14.4052 C   0  0  0  0  0  0  0  0  0  0  0  0
   14.9086   10.2078   13.5887 C   0  0  0  0  0  0  0  0  0  0  0  0
   14.7295   11.5180   13.9500 N   0  0  0  0  0  0  0  0  0  0  0  0
   14.3962   12.1353   12.8481 C   0  0  0  0  0  0  0  0  0  0  0  0
   14.4431   11.2833   11.7881 N   0  0  0  0  0  0  0  0  0  0  0  0
   14.2818   11.7190   10.4479 C   0  0  0  0  0  0  0  0  0  0  0  0
   14.7233   10.0138   12.2205 C   0  0  0  0  0  0  0  0  0  0  0  0
  1  2  1  0
  2  3  1  0
  3  4  1  6
  3  5  1  0
  5  6  2  0
  6  7  1  0
  7  8  2  0
  8  9  1  0
  9 10  1  0
 10 11  2  0
 11 12  1  0
 12 13  1  0
 12 14  1  0
 14  5  1  0
 14  9  2  0
M  END
>  <ref_pdb>  (189) 
c0300a

>  <inchikey>  (189) 
ONCPZYCPBHTNCE-VIFPVBQESA-N

>  <original ID>  (189) 
ONCPZYCPBHTNCE-VIFPVBQESA-N

>  <generation_date>  (189) 
None

>  <alias>  (189) 
None

>  <tags>  (189) 
[]

>  <ref_mols>  (189) 
c0894a,c1134a

>  <ref_url>  (189) 
None

>  <submitter_name>  (189) 
None

>  <exports>  (189) 
nan

>  <original SMILES>  (189) 
CC[C@H](C)c1cccc2ncn(C)c12

>  <method>  (189) 
None

>  <submitter_email>  (189) 
None

>  <HIPPO ID>  (189) 
101591

$$$$
ONCPZYCPBHTNCE-SECBINFHSA-N
     RDKit          3D

 14 15  0  0  0  0  0  0  0  0999 V2000
   15.8104    9.6637    8.7838 C   0  0  0  0  0  0  0  0  0  0  0  0
   15.5226    8.4050    9.5056 C   0  0  0  0  0  0  0  0  0  0  0  0
   14.2965    8.4061   10.3481 C   0  0  1  0  0  0  0  0  0  0  0  0
   13.6356    7.0181   10.2006 C   0  0  0  0  0  0  0  0  0  0  0  0
   14.6824    8.8008   11.7685 C   0  0  0  0  0  0  0  0  0  0  0  0
   15.0089    7.7663   12.6843 C   0  0  0  0  0  0  0  0  0  0  0  0
   15.3321    8.0052   14.0153 C   0  0  0  0  0  0  0  0  0  0  0  0
   15.3352    9.3003   14.5167 C   0  0  0  0  0  0  0  0  0  0  0  0
   15.0151   10.3607   13.6658 C   0  0  0  0  0  0  0  0  0  0  0  0
   14.9126   11.6836   14.0015 N   0  0  0  0  0  0  0  0  0  0  0  0
   14.5024   12.2745   12.9159 C   0  0  0  0  0  0  0  0  0  0  0  0
   14.4391   11.3950   11.8726 N   0  0  0  0  0  0  0  0  0  0  0  0
   13.9918   11.8549   10.6027 C   0  0  0  0  0  0  0  0  0  0  0  0
   14.7248   10.1241   12.3156 C   0  0  0  0  0  0  0  0  0  0  0  0
  1  2  1  0
  2  3  1  0
  3  4  1  1
  3  5  1  0
  5  6  2  0
  6  7  1  0
  7  8  2  0
  8  9  1  0
  9 10  1  0
 10 11  2  0
 11 12  1  0
 12 13  1  0
 12 14  1  0
 14  5  1  0
 14  9  2  0
M  END
>  <ref_pdb>  (190) 
c0300a

>  <inchikey>  (190) 
ONCPZYCPBHTNCE-SECBINFHSA-N

>  <original ID>  (190) 
ONCPZYCPBHTNCE-SECBINFHSA-N

>  <generation_date>  (190) 
None

>  <alias>  (190) 
None

>  <tags>  (190) 
[]

>  <ref_mols>  (190) 
c0894a,c1134a

>  <ref_url>  (190) 
None

>  <submitter_name>  (190) 
None

>  <exports>  (190) 
nan

>  <original SMILES>  (190) 
CC[C@@H](C)c1cccc2ncn(C)c12

>  <method>  (190) 
None

>  <submitter_email>  (190) 
None

>  <HIPPO ID>  (190) 
101592

$$$$
LBCFCMGMDDFRLQ-UHFFFAOYSA-N
     RDKit          3D

 14 15  0  0  0  0  0  0  0  0999 V2000
   16.6344   10.7577   15.5482 C   0  0  0  0  0  0  0  0  0  0  0  0
   15.1818   10.6882   15.0858 C   0  0  0  0  0  0  0  0  0  0  0  0
   14.6600   12.1182   14.9269 C   0  0  0  0  0  0  0  0  0  0  0  0
   15.0405    9.8099   13.8553 C   0  0  0  0  0  0  0  0  0  0  0  0
   15.0525    8.4009   14.0112 C   0  0  0  0  0  0  0  0  0  0  0  0
   14.9268    7.5173   12.9334 C   0  0  0  0  0  0  0  0  0  0  0  0
   14.7975    7.9878   11.6326 C   0  0  0  0  0  0  0  0  0  0  0  0
   14.8150    9.3770   11.4769 C   0  0  0  0  0  0  0  0  0  0  0  0
   14.9122   10.2837   12.5366 C   0  0  0  0  0  0  0  0  0  0  0  0
   14.8405   11.5784   12.0778 N   0  0  0  0  0  0  0  0  0  0  0  0
   14.6046   11.4520   10.8048 C   0  0  0  0  0  0  0  0  0  0  0  0
   14.2307   12.4599   10.0596 O   0  0  0  0  0  0  0  0  0  0  0  0
   14.7066   10.1658   10.3646 N   0  0  0  0  0  0  0  0  0  0  0  0
   14.5139    9.6677    9.0320 C   0  0  0  0  0  0  0  0  0  0  0  0
  1  2  1  0
  2  3  1  0
  2  4  1  0
  4  5  2  0
  5  6  1  0
  6  7  2  0
  7  8  1  0
  8  9  2  0
  9 10  1  0
 10 11  2  0
 11 12  1  0
 11 13  1  0
 13 14  1  0
  9  4  1  0
 13  8  1  0
M  END
>  <ref_pdb>  (191) 
c0300a

>  <inchikey>  (191) 
LBCFCMGMDDFRLQ-UHFFFAOYSA-N

>  <original ID>  (191) 
LBCFCMGMDDFRLQ-UHFFFAOYSA-N

>  <generation_date>  (191) 
None

>  <alias>  (191) 
None

>  <tags>  (191) 
[]

>  <ref_mols>  (191) 
c0894a,c1134a

>  <ref_url>  (191) 
None

>  <submitter_name>  (191) 
None

>  <exports>  (191) 
nan

>  <original SMILES>  (191) 
CC(C)c1cccc2c1nc(O)n2C

>  <method>  (191) 
None

>  <submitter_email>  (191) 
None

>  <HIPPO ID>  (191) 
101603

$$$$
DNKORNSFUCJWJH-UHFFFAOYSA-N
     RDKit          3D

 14 15  0  0  0  0  0  0  0  0999 V2000
   15.5095    9.2799   16.4570 C   0  0  0  0  0  0  0  0  0  0  0  0
   15.6936   10.0187   15.1355 C   0  0  0  0  0  0  0  0  0  0  0  0
   15.0473   11.4093   15.2450 C   0  0  0  0  0  0  0  0  0  0  0  0
   15.2614    9.2197   13.9109 C   0  0  0  0  0  0  0  0  0  0  0  0
   15.2021    7.8073   13.8895 C   0  0  0  0  0  0  0  0  0  0  0  0
   14.9381    7.0698   12.7249 C   0  0  0  0  0  0  0  0  0  0  0  0
   14.7408    7.6907   11.4978 C   0  0  0  0  0  0  0  0  0  0  0  0
   14.8101    9.0813   11.5097 C   0  0  0  0  0  0  0  0  0  0  0  0
   15.0356    9.8344   12.6675 C   0  0  0  0  0  0  0  0  0  0  0  0
   15.0527   11.1653   12.3848 N   0  0  0  0  0  0  0  0  0  0  0  0
   14.6740   11.2212   11.1451 C   0  0  0  0  0  0  0  0  0  0  0  0
   13.9338   12.5808   10.5324 Cl  0  0  0  0  0  0  0  0  0  0  0  0
   14.6941   10.0169   10.5121 N   0  0  0  0  0  0  0  0  0  0  0  0
   14.4317    9.7012    9.1346 C   0  0  0  0  0  0  0  0  0  0  0  0
  1  2  1  0
  2  3  1  0
  2  4  1  0
  4  5  2  0
  5  6  1  0
  6  7  2  0
  7  8  1  0
  8  9  2  0
  9 10  1  0
 10 11  2  0
 11 12  1  0
 11 13  1  0
 13 14  1  0
  9  4  1  0
 13  8  1  0
M  END
>  <ref_pdb>  (192) 
c0300a

>  <inchikey>  (192) 
DNKORNSFUCJWJH-UHFFFAOYSA-N

>  <original ID>  (192) 
DNKORNSFUCJWJH-UHFFFAOYSA-N

>  <generation_date>  (192) 
None

>  <alias>  (192) 
None

>  <tags>  (192) 
[]

>  <ref_mols>  (192) 
c0894a,c1134a

>  <ref_url>  (192) 
None

>  <submitter_name>  (192) 
None

>  <exports>  (192) 
nan

>  <original SMILES>  (192) 
CC(C)c1cccc2c1nc(Cl)n2C

>  <method>  (192) 
None

>  <submitter_email>  (192) 
None

>  <HIPPO ID>  (192) 
101611

$$$$
IXJSJFAULWMXMP-UHFFFAOYSA-N
     RDKit          3D

 14 15  0  0  0  0  0  0  0  0999 V2000
   14.8809   13.7116   12.0907 C   0  0  0  0  0  0  0  0  0  0  0  0
   14.3106   12.6835   11.1095 C   0  0  0  0  0  0  0  0  0  0  0  0
   12.8447   12.9601   11.0381 C   0  0  0  0  0  0  0  0  0  0  0  0
   14.6375   11.2974   11.5266 C   0  0  0  0  0  0  0  0  0  0  0  0
   14.8467   10.9832   12.7835 N   0  0  0  0  0  0  0  0  0  0  0  0
   14.9120    9.6254   12.8307 C   0  0  0  0  0  0  0  0  0  0  0  0
   15.0461    8.7776   13.9312 C   0  0  0  0  0  0  0  0  0  0  0  0
   15.1855    9.5085   15.6601 Br  0  0  0  0  0  0  0  0  0  0  0  0
   15.0637    7.3978   13.7188 C   0  0  0  0  0  0  0  0  0  0  0  0
   14.9356    6.8724   12.4290 C   0  0  0  0  0  0  0  0  0  0  0  0
   14.8005    7.7009   11.3141 C   0  0  0  0  0  0  0  0  0  0  0  0
   14.8121    9.0798   11.5549 C   0  0  0  0  0  0  0  0  0  0  0  0
   14.7430   10.1710   10.7257 N   0  0  0  0  0  0  0  0  0  0  0  0
   14.6292   10.0471    9.2973 C   0  0  0  0  0  0  0  0  0  0  0  0
  1  2  1  0
  2  3  1  0
  2  4  1  0
  4  5  2  0
  5  6  1  0
  6  7  2  0
  7  8  1  0
  7  9  1  0
  9 10  2  0
 10 11  1  0
 11 12  2  0
 12 13  1  0
 13 14  1  0
 13  4  1  0
 12  6  1  0
M  END
>  <ref_pdb>  (193) 
c0300a

>  <inchikey>  (193) 
IXJSJFAULWMXMP-UHFFFAOYSA-N

>  <original ID>  (193) 
IXJSJFAULWMXMP-UHFFFAOYSA-N

>  <generation_date>  (193) 
None

>  <alias>  (193) 
None

>  <tags>  (193) 
[]

>  <ref_mols>  (193) 
c0894a,c1134a

>  <ref_url>  (193) 
None

>  <submitter_name>  (193) 
None

>  <exports>  (193) 
nan

>  <original SMILES>  (193) 
CC(C)c1nc2c(Br)cccc2n1C

>  <method>  (193) 
None

>  <submitter_email>  (193) 
None

>  <HIPPO ID>  (193) 
101612

$$$$
KVAKLFGAJVRKCG-UHFFFAOYSA-N
     RDKit          3D

 14 15  0  0  0  0  0  0  0  0999 V2000
   13.4965    8.3894    9.0546 C   0  0  0  0  0  0  0  0  0  0  0  0
   14.8505    8.6470    9.6927 C   0  0  0  0  0  0  0  0  0  0  0  0
   15.6277    9.6867    8.9144 C   0  0  0  0  0  0  0  0  0  0  0  0
   14.8101    8.8597   11.2033 C   0  0  0  0  0  0  0  0  0  0  0  0
   14.8799    7.6917   12.0081 C   0  0  0  0  0  0  0  0  0  0  0  0
   14.9898    7.7354   13.3988 C   0  0  0  0  0  0  0  0  0  0  0  0
   15.0190    8.9550   14.0737 C   0  0  0  0  0  0  0  0  0  0  0  0
   14.8823   10.1364   13.3390 C   0  0  0  0  0  0  0  0  0  0  0  0
   14.8239   11.4250   13.8132 N   0  0  0  0  0  0  0  0  0  0  0  0
   14.5985   12.1650   12.7680 C   0  0  0  0  0  0  0  0  0  0  0  0
   14.5049   13.5037   12.7173 N   0  0  0  0  0  0  0  0  0  0  0  0
   14.5058   11.3898   11.6482 N   0  0  0  0  0  0  0  0  0  0  0  0
   13.9173   11.8998   10.4659 C   0  0  0  0  0  0  0  0  0  0  0  0
   14.7641   10.0766   11.9458 C   0  0  0  0  0  0  0  0  0  0  0  0
  1  2  1  0
  2  3  1  0
  2  4  1  0
  4  5  2  0
  5  6  1  0
  6  7  2  0
  7  8  1  0
  8  9  1  0
  9 10  2  0
 10 11  1  0
 10 12  1  0
 12 13  1  0
 12 14  1  0
 14  4  1  0
 14  8  2  0
M  END
>  <ref_pdb>  (194) 
c0300a

>  <inchikey>  (194) 
KVAKLFGAJVRKCG-UHFFFAOYSA-N

>  <original ID>  (194) 
KVAKLFGAJVRKCG-UHFFFAOYSA-N

>  <generation_date>  (194) 
None

>  <alias>  (194) 
None

>  <tags>  (194) 
[]

>  <ref_mols>  (194) 
c0894a,c1134a

>  <ref_url>  (194) 
None

>  <submitter_name>  (194) 
None

>  <exports>  (194) 
['/opt/xchem-fragalysis-2/maxwin/CHIKV_HIPPO/hippo_prod/CHIKV_prod11_recipes/Recipe_1G8PPKY_poses.sdf', '/opt/xchem-fragalysis-2/maxwin/CHIKV_HIPPO/hippo_prod/CHIKV_prod11_recipes/Recipe_1GERJCJ_poses.sdf']

>  <original SMILES>  (194) 
CC(C)c1cccc2nc(N)n(C)c12

>  <method>  (194) 
None

>  <submitter_email>  (194) 
None

>  <HIPPO ID>  (194) 
101625

$$$$
XDAUNVVQVWBJRY-UHFFFAOYSA-N
     RDKit          3D

 15 16  0  0  0  0  0  0  0  0999 V2000
   14.4467    9.7443    9.0659 C   0  0  0  0  0  0  0  0  0  0  0  0
   14.7029    9.9839   10.4578 N   0  0  0  0  0  0  0  0  0  0  0  0
   14.6593   11.1462   11.1641 C   0  0  0  0  0  0  0  0  0  0  0  0
   13.9881   12.5572   10.5782 Cl  0  0  0  0  0  0  0  0  0  0  0  0
   14.9592   11.0042   12.4203 N   0  0  0  0  0  0  0  0  0  0  0  0
   14.9845    9.6526   12.6057 C   0  0  0  0  0  0  0  0  0  0  0  0
   15.1605    8.9329   13.7999 C   0  0  0  0  0  0  0  0  0  0  0  0
   15.3260    9.5665   15.1852 C   0  0  0  0  0  0  0  0  0  0  0  0
   14.1431    9.1050   16.0451 C   0  0  0  0  0  0  0  0  0  0  0  0
   15.3565   11.1116   15.2046 C   0  0  0  0  0  0  0  0  0  0  0  0
   16.6327    9.0841   15.8364 C   0  0  0  0  0  0  0  0  0  0  0  0
   15.1476    7.5205   13.6545 C   0  0  0  0  0  0  0  0  0  0  0  0
   14.9641    6.8745   12.4283 C   0  0  0  0  0  0  0  0  0  0  0  0
   14.7880    7.5960   11.2586 C   0  0  0  0  0  0  0  0  0  0  0  0
   14.8209    8.9831   11.3867 C   0  0  0  0  0  0  0  0  0  0  0  0
  1  2  1  0
  2  3  1  0
  3  4  1  0
  3  5  2  0
  5  6  1  0
  6  7  2  0
  7  8  1  0
  8  9  1  0
  8 10  1  0
  8 11  1  0
  7 12  1  0
 12 13  2  0
 13 14  1  0
 14 15  2  0
 15  2  1  0
 15  6  1  0
M  END
>  <ref_pdb>  (195) 
c0300a

>  <inchikey>  (195) 
XDAUNVVQVWBJRY-UHFFFAOYSA-N

>  <original ID>  (195) 
XDAUNVVQVWBJRY-UHFFFAOYSA-N

>  <generation_date>  (195) 
None

>  <alias>  (195) 
None

>  <tags>  (195) 
[]

>  <ref_mols>  (195) 
c0894a,c1134a

>  <ref_url>  (195) 
None

>  <submitter_name>  (195) 
None

>  <exports>  (195) 
nan

>  <original SMILES>  (195) 
Cn1c(Cl)nc2c(C(C)(C)C)cccc21

>  <method>  (195) 
None

>  <submitter_email>  (195) 
None

>  <HIPPO ID>  (195) 
101632

$$$$
PESHYLFVQWQJCX-MRVPVSSYSA-N
     RDKit          3D

 15 16  0  0  0  0  0  0  0  0999 V2000
   14.9242   14.9389   12.8343 C   0  0  0  0  0  0  0  0  0  0  0  0
   15.0522   13.5810   12.2242 C   0  0  0  0  0  0  0  0  0  0  0  0
   13.8903   12.6815   11.9297 C   0  0  1  0  0  0  0  0  0  0  0  0
   13.0882   13.0110   10.7291 C   0  0  0  0  0  0  0  0  0  0  0  0
   14.4250   11.2668   11.9835 C   0  0  0  0  0  0  0  0  0  0  0  0
   14.7158   10.7911   13.1749 N   0  0  0  0  0  0  0  0  0  0  0  0
   14.8933    9.4572   13.0291 C   0  0  0  0  0  0  0  0  0  0  0  0
   15.1004    8.4854   14.0040 C   0  0  0  0  0  0  0  0  0  0  0  0
   15.2243    9.0128   15.8062 Br  0  0  0  0  0  0  0  0  0  0  0  0
   15.1818    7.1496   13.6108 C   0  0  0  0  0  0  0  0  0  0  0  0
   15.0466    6.7938   12.2639 C   0  0  0  0  0  0  0  0  0  0  0  0
   14.8515    7.7558   11.2700 C   0  0  0  0  0  0  0  0  0  0  0  0
   14.8046    9.0904   11.6949 C   0  0  0  0  0  0  0  0  0  0  0  0
   14.6848   10.2903   11.0273 N   0  0  0  0  0  0  0  0  0  0  0  0
   14.7072   10.3324    9.5915 C   0  0  0  0  0  0  0  0  0  0  0  0
  1  2  1  0
  2  3  1  0
  3  4  1  6
  3  5  1  0
  5  6  2  0
  6  7  1  0
  7  8  2  0
  8  9  1  0
  8 10  1  0
 10 11  2  0
 11 12  1  0
 12 13  2  0
 13 14  1  0
 14 15  1  0
 14  5  1  0
 13  7  1  0
M  END
>  <ref_pdb>  (196) 
c0300a

>  <inchikey>  (196) 
PESHYLFVQWQJCX-MRVPVSSYSA-N

>  <original ID>  (196) 
PESHYLFVQWQJCX-MRVPVSSYSA-N

>  <generation_date>  (196) 
None

>  <alias>  (196) 
None

>  <tags>  (196) 
[]

>  <ref_mols>  (196) 
c0894a,c1134a

>  <ref_url>  (196) 
None

>  <submitter_name>  (196) 
None

>  <exports>  (196) 
nan

>  <original SMILES>  (196) 
CC[C@@H](C)c1nc2c(Br)cccc2n1C

>  <method>  (196) 
None

>  <submitter_email>  (196) 
None

>  <HIPPO ID>  (196) 
101672

$$$$
QDKYIYCJKKBVPL-MRVPVSSYSA-N
     RDKit          3D

 15 16  0  0  0  0  0  0  0  0999 V2000
   14.7295    9.7309   17.7409 C   0  0  0  0  0  0  0  0  0  0  0  0
   14.5749    9.0359   16.3978 C   0  0  0  0  0  0  0  0  0  0  0  0
   14.9558    9.8820   15.1717 C   0  0  1  0  0  0  0  0  0  0  0  0
   16.2422   10.6881   15.3640 C   0  0  0  0  0  0  0  0  0  0  0  0
   14.9883    9.0842   13.8774 C   0  0  0  0  0  0  0  0  0  0  0  0
   15.0213    7.6759   13.7915 C   0  0  0  0  0  0  0  0  0  0  0  0
   14.9382    6.9868   12.5727 C   0  0  0  0  0  0  0  0  0  0  0  0
   14.8173    7.6590   11.3635 C   0  0  0  0  0  0  0  0  0  0  0  0
   14.8294    9.0494   11.4436 C   0  0  0  0  0  0  0  0  0  0  0  0
   14.9216    9.7530   12.6469 C   0  0  0  0  0  0  0  0  0  0  0  0
   14.8978   11.0979   12.4404 N   0  0  0  0  0  0  0  0  0  0  0  0
   14.6463   11.2040   11.1704 C   0  0  0  0  0  0  0  0  0  0  0  0
   13.9568   12.5854   10.5454 Cl  0  0  0  0  0  0  0  0  0  0  0  0
   14.7274   10.0270   10.4885 N   0  0  0  0  0  0  0  0  0  0  0  0
   14.5014    9.7538    9.0966 C   0  0  0  0  0  0  0  0  0  0  0  0
  1  2  1  0
  2  3  1  0
  3  4  1  1
  3  5  1  0
  5  6  2  0
  6  7  1  0
  7  8  2  0
  8  9  1  0
  9 10  2  0
 10 11  1  0
 11 12  2  0
 12 13  1  0
 12 14  1  0
 14 15  1  0
 10  5  1  0
 14  9  1  0
M  END
>  <ref_pdb>  (197) 
c0300a

>  <inchikey>  (197) 
QDKYIYCJKKBVPL-MRVPVSSYSA-N

>  <original ID>  (197) 
QDKYIYCJKKBVPL-MRVPVSSYSA-N

>  <generation_date>  (197) 
None

>  <alias>  (197) 
None

>  <tags>  (197) 
[]

>  <ref_mols>  (197) 
c0894a,c1134a

>  <ref_url>  (197) 
None

>  <submitter_name>  (197) 
None

>  <exports>  (197) 
nan

>  <original SMILES>  (197) 
CC[C@@H](C)c1cccc2c1nc(Cl)n2C

>  <method>  (197) 
None

>  <submitter_email>  (197) 
None

>  <HIPPO ID>  (197) 
101673

$$$$
QDKYIYCJKKBVPL-QMMMGPOBSA-N
     RDKit          3D

 15 16  0  0  0  0  0  0  0  0999 V2000
   17.7709    9.7989   15.6827 C   0  0  0  0  0  0  0  0  0  0  0  0
   16.5461   10.6531   15.3819 C   0  0  0  0  0  0  0  0  0  0  0  0
   15.2313    9.8615   15.2409 C   0  0  2  0  0  0  0  0  0  0  0  0
   14.9718    9.0354   16.4957 C   0  0  0  0  0  0  0  0  0  0  0  0
   15.1299    9.0800   13.9420 C   0  0  0  0  0  0  0  0  0  0  0  0
   15.1492    7.6717   13.8621 C   0  0  0  0  0  0  0  0  0  0  0  0
   14.9903    6.9797   12.6529 C   0  0  0  0  0  0  0  0  0  0  0  0
   14.8146    7.6488   11.4473 C   0  0  0  0  0  0  0  0  0  0  0  0
   14.8301    9.0403   11.5192 C   0  0  0  0  0  0  0  0  0  0  0  0
   14.9686    9.7498   12.7169 C   0  0  0  0  0  0  0  0  0  0  0  0
   14.9188   11.0954   12.5017 N   0  0  0  0  0  0  0  0  0  0  0  0
   14.6454   11.1937   11.2337 C   0  0  0  0  0  0  0  0  0  0  0  0
   13.9696   12.5741   10.5852 Cl  0  0  0  0  0  0  0  0  0  0  0  0
   14.7189   10.0122   10.5577 N   0  0  0  0  0  0  0  0  0  0  0  0
   14.5018    9.7399    9.1621 C   0  0  0  0  0  0  0  0  0  0  0  0
  1  2  1  0
  2  3  1  0
  3  4  1  1
  3  5  1  0
  5  6  2  0
  6  7  1  0
  7  8  2  0
  8  9  1  0
  9 10  2  0
 10 11  1  0
 11 12  2  0
 12 13  1  0
 12 14  1  0
 14 15  1  0
 10  5  1  0
 14  9  1  0
M  END
>  <ref_pdb>  (198) 
c0300a

>  <inchikey>  (198) 
QDKYIYCJKKBVPL-QMMMGPOBSA-N

>  <original ID>  (198) 
QDKYIYCJKKBVPL-QMMMGPOBSA-N

>  <generation_date>  (198) 
None

>  <alias>  (198) 
None

>  <tags>  (198) 
[]

>  <ref_mols>  (198) 
c0894a,c1134a

>  <ref_url>  (198) 
None

>  <submitter_name>  (198) 
None

>  <exports>  (198) 
nan

>  <original SMILES>  (198) 
CC[C@H](C)c1cccc2c1nc(Cl)n2C

>  <method>  (198) 
None

>  <submitter_email>  (198) 
None

>  <HIPPO ID>  (198) 
101674

$$$$
BLAYPWXDWCKVHA-UHFFFAOYSA-N
     RDKit          3D

 15 16  0  0  0  0  0  0  0  0999 V2000
   14.4039   11.7254   10.3142 C   0  0  0  0  0  0  0  0  0  0  0  0
   14.5494   11.3648   11.6622 N   0  0  0  0  0  0  0  0  0  0  0  0
   14.5595   12.2410   12.7014 C   0  0  0  0  0  0  0  0  0  0  0  0
   14.4746   13.5710   12.5411 N   0  0  0  0  0  0  0  0  0  0  0  0
   14.7762   11.6088   13.8156 N   0  0  0  0  0  0  0  0  0  0  0  0
   14.8573   10.2833   13.4698 C   0  0  0  0  0  0  0  0  0  0  0  0
   15.0592    9.2019   14.3243 C   0  0  0  0  0  0  0  0  0  0  0  0
   15.0751    7.9288   13.7781 C   0  0  0  0  0  0  0  0  0  0  0  0
   14.8720    7.7395   12.4087 C   0  0  0  0  0  0  0  0  0  0  0  0
   14.6359    8.7908   11.4643 C   0  0  0  0  0  0  0  0  0  0  0  0
   14.4555    8.4127    9.9503 C   0  0  0  0  0  0  0  0  0  0  0  0
   13.5642    9.1346    8.9185 C   0  0  0  0  0  0  0  0  0  0  0  0
   13.9822    6.9357    9.8555 C   0  0  0  0  0  0  0  0  0  0  0  0
   15.8469    8.6671    9.4140 C   0  0  0  0  0  0  0  0  0  0  0  0
   14.6952   10.0742   12.0955 C   0  0  0  0  0  0  0  0  0  0  0  0
  1  2  1  0
  2  3  1  0
  3  4  1  0
  3  5  2  0
  5  6  1  0
  6  7  2  0
  7  8  1  0
  8  9  2  0
  9 10  1  0
 10 11  1  0
 11 12  1  0
 11 13  1  0
 11 14  1  0
 10 15  2  0
 15  2  1  0
 15  6  1  0
M  END
>  <ref_pdb>  (199) 
c0300a

>  <inchikey>  (199) 
BLAYPWXDWCKVHA-UHFFFAOYSA-N

>  <original ID>  (199) 
BLAYPWXDWCKVHA-UHFFFAOYSA-N

>  <generation_date>  (199) 
None

>  <alias>  (199) 
None

>  <tags>  (199) 
[]

>  <ref_mols>  (199) 
c0894a,c1134a

>  <ref_url>  (199) 
None

>  <submitter_name>  (199) 
None

>  <exports>  (199) 
['/opt/xchem-fragalysis-2/maxwin/CHIKV_HIPPO/hippo_prod/CHIKV_prod11_recipes/Recipe_1G8PPKY_poses.sdf', '/opt/xchem-fragalysis-2/maxwin/CHIKV_HIPPO/hippo_prod/CHIKV_prod11_recipes/Recipe_1GERJCJ_poses.sdf']

>  <original SMILES>  (199) 
Cn1c(N)nc2cccc(C(C)(C)C)c21

>  <method>  (199) 
None

>  <submitter_email>  (199) 
None

>  <HIPPO ID>  (199) 
101716

$$$$
VWIDBLALGKFOAL-QMMMGPOBSA-N
     RDKit          3D

 15 16  0  0  0  0  0  0  0  0999 V2000
   12.9092    6.2276   10.6435 C   0  0  0  0  0  0  0  0  0  0  0  0
   13.9977    6.8826    9.8264 C   0  0  0  0  0  0  0  0  0  0  0  0
   14.4258    8.3151   10.1750 C   0  0  2  0  0  0  0  0  0  0  0  0
   15.6069    8.7463    9.3323 C   0  0  0  0  0  0  0  0  0  0  0  0
   14.7398    8.6427   11.6198 C   0  0  0  0  0  0  0  0  0  0  0  0
   15.0738    7.6524   12.5649 C   0  0  0  0  0  0  0  0  0  0  0  0
   15.2774    7.9442   13.9153 C   0  0  0  0  0  0  0  0  0  0  0  0
   15.1746    9.2510   14.3939 C   0  0  0  0  0  0  0  0  0  0  0  0
   14.9002   10.2753   13.4867 C   0  0  0  0  0  0  0  0  0  0  0  0
   14.7721   11.6204   13.7204 N   0  0  0  0  0  0  0  0  0  0  0  0
   14.5283   12.1550   12.5581 C   0  0  0  0  0  0  0  0  0  0  0  0
   14.4502   13.4660   12.2920 N   0  0  0  0  0  0  0  0  0  0  0  0
   14.4984   11.1981   11.5866 N   0  0  0  0  0  0  0  0  0  0  0  0
   14.3512   11.4854   10.2090 C   0  0  0  0  0  0  0  0  0  0  0  0
   14.7259    9.9664   12.1413 C   0  0  0  0  0  0  0  0  0  0  0  0
  1  2  1  0
  2  3  1  0
  3  4  1  6
  3  5  1  0
  5  6  2  0
  6  7  1  0
  7  8  2  0
  8  9  1  0
  9 10  1  0
 10 11  2  0
 11 12  1  0
 11 13  1  0
 13 14  1  0
 13 15  1  0
 15  5  1  0
 15  9  2  0
M  END
>  <ref_pdb>  (200) 
c0300a

>  <inchikey>  (200) 
VWIDBLALGKFOAL-QMMMGPOBSA-N

>  <original ID>  (200) 
VWIDBLALGKFOAL-QMMMGPOBSA-N

>  <generation_date>  (200) 
None

>  <alias>  (200) 
None

>  <tags>  (200) 
[]

>  <ref_mols>  (200) 
c0894a,c1134a

>  <ref_url>  (200) 
None

>  <submitter_name>  (200) 
None

>  <exports>  (200) 
nan

>  <original SMILES>  (200) 
CC[C@H](C)c1cccc2nc(N)n(C)c12

>  <method>  (200) 
None

>  <submitter_email>  (200) 
None

>  <HIPPO ID>  (200) 
101717

$$$$
VWIDBLALGKFOAL-MRVPVSSYSA-N
     RDKit          3D

 15 16  0  0  0  0  0  0  0  0999 V2000
   15.8216    9.6206    8.7920 C   0  0  0  0  0  0  0  0  0  0  0  0
   15.5226    8.3688    9.5245 C   0  0  0  0  0  0  0  0  0  0  0  0
   14.2956    8.3725   10.3663 C   0  0  1  0  0  0  0  0  0  0  0  0
   13.6447    6.9780   10.2459 C   0  0  0  0  0  0  0  0  0  0  0  0
   14.6720    8.8021   11.7787 C   0  0  0  0  0  0  0  0  0  0  0  0
   14.9782    7.7994   12.7333 C   0  0  0  0  0  0  0  0  0  0  0  0
   15.2803    8.0854   14.0608 C   0  0  0  0  0  0  0  0  0  0  0  0
   15.2859    9.3984   14.5175 C   0  0  0  0  0  0  0  0  0  0  0  0
   14.9979   10.4310   13.6218 C   0  0  0  0  0  0  0  0  0  0  0  0
   14.9317   11.7726   13.8937 N   0  0  0  0  0  0  0  0  0  0  0  0
   14.6104   12.3357   12.7683 C   0  0  0  0  0  0  0  0  0  0  0  0
   14.5225   13.6543   12.5319 N   0  0  0  0  0  0  0  0  0  0  0  0
   14.4641   11.3960   11.7821 N   0  0  0  0  0  0  0  0  0  0  0  0
   13.9789   11.7821   10.5060 C   0  0  0  0  0  0  0  0  0  0  0  0
   14.7242   10.1415   12.2807 C   0  0  0  0  0  0  0  0  0  0  0  0
  1  2  1  0
  2  3  1  0
  3  4  1  1
  3  5  1  0
  5  6  2  0
  6  7  1  0
  7  8  2  0
  8  9  1  0
  9 10  1  0
 10 11  2  0
 11 12  1  0
 11 13  1  0
 13 14  1  0
 13 15  1  0
 15  5  1  0
 15  9  2  0
M  END
>  <ref_pdb>  (201) 
c0300a

>  <inchikey>  (201) 
VWIDBLALGKFOAL-MRVPVSSYSA-N

>  <original ID>  (201) 
VWIDBLALGKFOAL-MRVPVSSYSA-N

>  <generation_date>  (201) 
None

>  <alias>  (201) 
None

>  <tags>  (201) 
[]

>  <ref_mols>  (201) 
c0894a,c1134a

>  <ref_url>  (201) 
None

>  <submitter_name>  (201) 
None

>  <exports>  (201) 
nan

>  <original SMILES>  (201) 
CC[C@@H](C)c1cccc2nc(N)n(C)c12

>  <method>  (201) 
None

>  <submitter_email>  (201) 
None

>  <HIPPO ID>  (201) 
101718

$$$$
OECAZDKJZSGKQB-UHFFFAOYSA-N
     RDKit          3D

 15 16  0  0  0  0  0  0  0  0999 V2000
   14.5232    9.8152    8.9492 C   0  0  0  0  0  0  0  0  0  0  0  0
   14.7045   10.1792   10.3230 N   0  0  0  0  0  0  0  0  0  0  0  0
   14.6041   11.3996   10.9183 C   0  0  0  0  0  0  0  0  0  0  0  0
   14.2409   12.4959   10.2947 O   0  0  0  0  0  0  0  0  0  0  0  0
   14.8309   11.3496   12.2044 N   0  0  0  0  0  0  0  0  0  0  0  0
   14.9382    9.9973   12.4909 C   0  0  0  0  0  0  0  0  0  0  0  0
   15.1262    9.3172   13.7189 C   0  0  0  0  0  0  0  0  0  0  0  0
   15.2841    9.9668   15.0988 C   0  0  0  0  0  0  0  0  0  0  0  0
   14.2662    9.3220   16.0551 C   0  0  0  0  0  0  0  0  0  0  0  0
   15.0618   11.4913   15.1033 C   0  0  0  0  0  0  0  0  0  0  0  0
   16.6910    9.7022   15.6648 C   0  0  0  0  0  0  0  0  0  0  0  0
   15.1643    7.8917   13.6341 C   0  0  0  0  0  0  0  0  0  0  0  0
   14.9924    7.1804   12.4484 C   0  0  0  0  0  0  0  0  0  0  0  0
   14.8088    7.8501   11.2549 C   0  0  0  0  0  0  0  0  0  0  0  0
   14.8207    9.2471   11.3163 C   0  0  0  0  0  0  0  0  0  0  0  0
  1  2  1  0
  2  3  1  0
  3  4  1  0
  3  5  2  0
  5  6  1  0
  6  7  2  0
  7  8  1  0
  8  9  1  0
  8 10  1  0
  8 11  1  0
  7 12  1  0
 12 13  2  0
 13 14  1  0
 14 15  2  0
 15  2  1  0
 15  6  1  0
M  END
>  <ref_pdb>  (202) 
c0300a

>  <inchikey>  (202) 
OECAZDKJZSGKQB-UHFFFAOYSA-N

>  <original ID>  (202) 
OECAZDKJZSGKQB-UHFFFAOYSA-N

>  <generation_date>  (202) 
None

>  <alias>  (202) 
None

>  <tags>  (202) 
[]

>  <ref_mols>  (202) 
c0894a,c1134a

>  <ref_url>  (202) 
None

>  <submitter_name>  (202) 
None

>  <exports>  (202) 
nan

>  <original SMILES>  (202) 
Cn1c(O)nc2c(C(C)(C)C)cccc21

>  <method>  (202) 
None

>  <submitter_email>  (202) 
None

>  <HIPPO ID>  (202) 
101747

$$$$
WZRJGCXJCRYAPZ-QMMMGPOBSA-N
     RDKit          3D

 15 16  0  0  0  0  0  0  0  0999 V2000
   14.8201    9.5676   17.5577 C   0  0  0  0  0  0  0  0  0  0  0  0
   14.4836    9.1772   16.1271 C   0  0  0  0  0  0  0  0  0  0  0  0
   15.3179    9.9199   15.0556 C   0  0  2  0  0  0  0  0  0  0  0  0
   15.0344   11.4287   15.0843 C   0  0  0  0  0  0  0  0  0  0  0  0
   15.1197    9.2777   13.6825 C   0  0  0  0  0  0  0  0  0  0  0  0
   15.2208    7.8583   13.5776 C   0  0  0  0  0  0  0  0  0  0  0  0
   15.0377    7.1545   12.3889 C   0  0  0  0  0  0  0  0  0  0  0  0
   14.8123    7.8312   11.2071 C   0  0  0  0  0  0  0  0  0  0  0  0
   14.8108    9.2271   11.2818 C   0  0  0  0  0  0  0  0  0  0  0  0
   14.9205    9.9673   12.4626 C   0  0  0  0  0  0  0  0  0  0  0  0
   14.8079   11.3218   12.1885 N   0  0  0  0  0  0  0  0  0  0  0  0
   14.5931   11.3840   10.9013 C   0  0  0  0  0  0  0  0  0  0  0  0
   14.2397   12.4877   10.2854 O   0  0  0  0  0  0  0  0  0  0  0  0
   14.6918   10.1677   10.2976 N   0  0  0  0  0  0  0  0  0  0  0  0
   14.5158    9.8111    8.9223 C   0  0  0  0  0  0  0  0  0  0  0  0
  1  2  1  0
  2  3  1  0
  3  4  1  6
  3  5  1  0
  5  6  2  0
  6  7  1  0
  7  8  2  0
  8  9  1  0
  9 10  2  0
 10 11  1  0
 11 12  2  0
 12 13  1  0
 12 14  1  0
 14 15  1  0
 10  5  1  0
 14  9  1  0
M  END
>  <ref_pdb>  (203) 
c0300a

>  <inchikey>  (203) 
WZRJGCXJCRYAPZ-QMMMGPOBSA-N

>  <original ID>  (203) 
WZRJGCXJCRYAPZ-QMMMGPOBSA-N

>  <generation_date>  (203) 
None

>  <alias>  (203) 
None

>  <tags>  (203) 
[]

>  <ref_mols>  (203) 
c0894a,c1134a

>  <ref_url>  (203) 
None

>  <submitter_name>  (203) 
None

>  <exports>  (203) 
nan

>  <original SMILES>  (203) 
CC[C@H](C)c1cccc2c1nc(O)n2C

>  <method>  (203) 
None

>  <submitter_email>  (203) 
None

>  <HIPPO ID>  (203) 
101758

$$$$
WZRJGCXJCRYAPZ-QMMMGPOBSA-N
     RDKit          3D

 15 16  0  0  0  0  0  0  0  0999 V2000
   15.6025    9.9934   17.6023 C   0  0  0  0  0  0  0  0  0  0  0  0
   15.1791    9.3583   16.2891 C   0  0  0  0  0  0  0  0  0  0  0  0
   15.5874   10.1416   15.0210 C   0  0  2  0  0  0  0  0  0  0  0  0
   15.1299   11.6041   15.0838 C   0  0  0  0  0  0  0  0  0  0  0  0
   15.1797    9.4200   13.7303 C   0  0  0  0  0  0  0  0  0  0  0  0
   15.1618    7.9945   13.6855 C   0  0  0  0  0  0  0  0  0  0  0  0
   14.9350    7.2538   12.5240 C   0  0  0  0  0  0  0  0  0  0  0  0
   14.7590    7.8885   11.3109 C   0  0  0  0  0  0  0  0  0  0  0  0
   14.7997    9.2844   11.3355 C   0  0  0  0  0  0  0  0  0  0  0  0
   14.9525   10.0617   12.4878 C   0  0  0  0  0  0  0  0  0  0  0  0
   14.8659   11.4061   12.1681 N   0  0  0  0  0  0  0  0  0  0  0  0
   14.6039   11.4268   10.8896 C   0  0  0  0  0  0  0  0  0  0  0  0
   14.2266   12.5106   10.2542 O   0  0  0  0  0  0  0  0  0  0  0  0
   14.6904   10.1937   10.3201 N   0  0  0  0  0  0  0  0  0  0  0  0
   14.5046    9.8024    8.9542 C   0  0  0  0  0  0  0  0  0  0  0  0
  1  2  1  0
  2  3  1  0
  3  4  1  1
  3  5  1  0
  5  6  2  0
  6  7  1  0
  7  8  2  0
  8  9  1  0
  9 10  2  0
 10 11  1  0
 11 12  2  0
 12 13  1  0
 12 14  1  0
 14 15  1  0
 10  5  1  0
 14  9  1  0
M  END
>  <ref_pdb>  (204) 
c0300a

>  <inchikey>  (204) 
WZRJGCXJCRYAPZ-QMMMGPOBSA-N

>  <original ID>  (204) 
WZRJGCXJCRYAPZ-QMMMGPOBSA-N

>  <generation_date>  (204) 
None

>  <alias>  (204) 
None

>  <tags>  (204) 
[]

>  <ref_mols>  (204) 
c0894a,c1134a

>  <ref_url>  (204) 
None

>  <submitter_name>  (204) 
None

>  <exports>  (204) 
nan

>  <original SMILES>  (204) 
CC[C@H](C)c1cccc2c1nc(O)n2C

>  <method>  (204) 
None

>  <submitter_email>  (204) 
None

>  <HIPPO ID>  (204) 
101759

$$$$
SLYHQCIYLUPBOA-JTQLQIEISA-N
     RDKit          3D

 15 17  0  0  0  0  0  0  0  0999 V2000
   13.9272   11.8611   10.6572 C   0  0  0  0  0  0  0  0  0  0  0  0
   14.3953   11.5532   11.9663 N   0  0  0  0  0  0  0  0  0  0  0  0
   14.4649   12.5684   12.8811 C   0  0  0  0  0  0  0  0  0  0  0  0
   14.9318   12.1470   14.0204 N   0  0  0  0  0  0  0  0  0  0  0  0
   15.0787   10.7979   13.8614 C   0  0  0  0  0  0  0  0  0  0  0  0
   15.4776    9.8803   14.8392 C   0  0  0  0  0  0  0  0  0  0  0  0
   15.5317    8.5299   14.5287 C   0  0  0  0  0  0  0  0  0  0  0  0
   15.2024    8.1082   13.2532 C   0  0  0  0  0  0  0  0  0  0  0  0
   14.8403    9.0022   12.2128 C   0  0  0  0  0  0  0  0  0  0  0  0
   14.3816    8.4032   10.9344 C   0  0  2  0  0  0  0  0  0  0  0  0
   15.2608    7.4779   10.1941 C   0  0  0  0  0  0  0  0  0  0  0  0
   14.7601    8.7163    9.5095 C   0  0  0  0  0  0  0  0  0  0  0  0
   15.7764    9.7161    9.0973 C   0  0  0  0  0  0  0  0  0  0  0  0
   13.6020    8.6010    8.5920 C   0  0  0  0  0  0  0  0  0  0  0  0
   14.7704   10.3753   12.5605 C   0  0  0  0  0  0  0  0  0  0  0  0
  1  2  1  0
  2  3  1  0
  3  4  2  0
  4  5  1  0
  5  6  2  0
  6  7  1  0
  7  8  2  0
  8  9  1  0
 10  9  1  1
 10 11  1  0
 11 12  1  0
 12 13  1  0
 12 14  1  0
  9 15  2  0
 15  2  1  0
 15  5  1  0
 12 10  1  0
M  END
>  <ref_pdb>  (205) 
c0300a

>  <inchikey>  (205) 
SLYHQCIYLUPBOA-JTQLQIEISA-N

>  <original ID>  (205) 
SLYHQCIYLUPBOA-JTQLQIEISA-N

>  <generation_date>  (205) 
None

>  <alias>  (205) 
None

>  <tags>  (205) 
[]

>  <ref_mols>  (205) 
c0894a,c1134a

>  <ref_url>  (205) 
None

>  <submitter_name>  (205) 
None

>  <exports>  (205) 
nan

>  <original SMILES>  (205) 
Cn1cnc2cccc([C@@H]3CC3(C)C)c21

>  <method>  (205) 
None

>  <submitter_email>  (205) 
None

>  <HIPPO ID>  (205) 
101875

$$$$
MWVVXSOOQNZYQI-SECBINFHSA-N
     RDKit          3D

 15 17  0  0  0  0  0  0  0  0999 V2000
   14.6635    9.9105    9.1930 C   0  0  0  0  0  0  0  0  0  0  0  0
   14.7440   10.4393   10.5283 N   0  0  0  0  0  0  0  0  0  0  0  0
   14.5599   11.7488   10.8857 C   0  0  0  0  0  0  0  0  0  0  0  0
   14.7254   11.9377   12.1694 N   0  0  0  0  0  0  0  0  0  0  0  0
   14.8004   10.6844   12.6945 C   0  0  0  0  0  0  0  0  0  0  0  0
   14.8575   10.3262   14.0412 C   0  0  0  0  0  0  0  0  0  0  0  0
   14.8725    8.9770   14.3631 C   0  0  0  0  0  0  0  0  0  0  0  0
   14.8549    8.0087   13.3625 C   0  0  0  0  0  0  0  0  0  0  0  0
   14.8465    8.3199   11.9835 C   0  0  0  0  0  0  0  0  0  0  0  0
   15.0211    7.2437   10.9508 C   0  0  2  0  0  0  0  0  0  0  0  0
   13.7947    6.7575   10.2035 C   0  0  0  0  0  0  0  0  0  0  0  0
   14.1273    5.3150    9.8515 C   0  0  0  0  0  0  0  0  0  0  0  0
   15.4277    5.0276   10.3780 O   0  0  0  0  0  0  0  0  0  0  0  0
   15.5945    5.9357   11.4623 C   0  0  0  0  0  0  0  0  0  0  0  0
   14.8084    9.7061   11.6950 C   0  0  0  0  0  0  0  0  0  0  0  0
  1  2  1  0
  2  3  1  0
  3  4  2  0
  4  5  1  0
  5  6  2  0
  6  7  1  0
  7  8  2  0
  8  9  1  0
 10  9  1  1
 10 11  1  0
 11 12  1  0
 12 13  1  0
 13 14  1  0
  9 15  2  0
 15  2  1  0
 15  5  1  0
 14 10  1  0
M  END
>  <ref_pdb>  (206) 
c0300a

>  <inchikey>  (206) 
MWVVXSOOQNZYQI-SECBINFHSA-N

>  <original ID>  (206) 
MWVVXSOOQNZYQI-SECBINFHSA-N

>  <generation_date>  (206) 
None

>  <alias>  (206) 
None

>  <tags>  (206) 
[]

>  <ref_mols>  (206) 
c0894a,c1134a

>  <ref_url>  (206) 
None

>  <submitter_name>  (206) 
None

>  <exports>  (206) 
nan

>  <original SMILES>  (206) 
Cn1cnc2cccc([C@@H]3CCOC3)c21

>  <method>  (206) 
None

>  <submitter_email>  (206) 
None

>  <HIPPO ID>  (206) 
101888

$$$$
MWVVXSOOQNZYQI-VIFPVBQESA-N
     RDKit          3D

 15 17  0  0  0  0  0  0  0  0999 V2000
   15.0572   10.1720    9.2101 C   0  0  0  0  0  0  0  0  0  0  0  0
   14.8306   10.5391   10.5781 N   0  0  0  0  0  0  0  0  0  0  0  0
   14.6138   11.8041   11.0456 C   0  0  0  0  0  0  0  0  0  0  0  0
   14.7137   11.8541   12.3504 N   0  0  0  0  0  0  0  0  0  0  0  0
   14.8020   10.5482   12.7451 C   0  0  0  0  0  0  0  0  0  0  0  0
   14.8608   10.0382   14.0421 C   0  0  0  0  0  0  0  0  0  0  0  0
   14.8800    8.6568   14.2056 C   0  0  0  0  0  0  0  0  0  0  0  0
   14.8319    7.7997   13.1036 C   0  0  0  0  0  0  0  0  0  0  0  0
   14.7892    8.2606   11.7708 C   0  0  0  0  0  0  0  0  0  0  0  0
   14.8571    7.3120   10.5892 C   0  0  1  0  0  0  0  0  0  0  0  0
   14.7998    5.8134   10.8650 C   0  0  0  0  0  0  0  0  0  0  0  0
   13.3469    5.4978   10.6617 C   0  0  0  0  0  0  0  0  0  0  0  0
   12.9842    6.2642    9.5238 O   0  0  0  0  0  0  0  0  0  0  0  0
   13.7302    7.4804    9.5727 C   0  0  0  0  0  0  0  0  0  0  0  0
   14.8103    9.6776   11.6514 C   0  0  0  0  0  0  0  0  0  0  0  0
  1  2  1  0
  2  3  1  0
  3  4  2  0
  4  5  1  0
  5  6  2  0
  6  7  1  0
  7  8  2  0
  8  9  1  0
 10  9  1  1
 10 11  1  0
 11 12  1  0
 12 13  1  0
 13 14  1  0
  9 15  2  0
 15  2  1  0
 15  5  1  0
 14 10  1  0
M  END
>  <ref_pdb>  (207) 
c0300a

>  <inchikey>  (207) 
MWVVXSOOQNZYQI-VIFPVBQESA-N

>  <original ID>  (207) 
MWVVXSOOQNZYQI-VIFPVBQESA-N

>  <generation_date>  (207) 
None

>  <alias>  (207) 
None

>  <tags>  (207) 
[]

>  <ref_mols>  (207) 
c0894a,c1134a

>  <ref_url>  (207) 
None

>  <submitter_name>  (207) 
None

>  <exports>  (207) 
nan

>  <original SMILES>  (207) 
Cn1cnc2cccc([C@H]3CCOC3)c21

>  <method>  (207) 
None

>  <submitter_email>  (207) 
None

>  <HIPPO ID>  (207) 
101889

$$$$
UITUCYUSGMGMBQ-VIFPVBQESA-N
     RDKit          3D

 16 18  0  0  0  0  0  0  0  0999 V2000
   14.5452    9.7178    9.0305 C   0  0  0  0  0  0  0  0  0  0  0  0
   14.7154   10.1589   10.3863 N   0  0  0  0  0  0  0  0  0  0  0  0
   14.5891   11.4214   10.8854 C   0  0  0  0  0  0  0  0  0  0  0  0
   14.2437   12.4585   10.1626 O   0  0  0  0  0  0  0  0  0  0  0  0
   14.7662   11.4822   12.1770 N   0  0  0  0  0  0  0  0  0  0  0  0
   14.8983   10.1624   12.5713 C   0  0  0  0  0  0  0  0  0  0  0  0
   15.0418    9.5855   13.8525 C   0  0  0  0  0  0  0  0  0  0  0  0
   14.9350   10.3928   15.1097 C   0  0  2  0  0  0  0  0  0  0  0  0
   15.2677   11.8478   15.2639 C   0  0  0  0  0  0  0  0  0  0  0  0
   16.1473   10.8170   15.9351 C   0  0  0  0  0  0  0  0  0  0  0  0
   16.0425   10.6104   17.4213 C   0  0  0  0  0  0  0  0  0  0  0  0
   17.5590   10.7085   15.4294 C   0  0  0  0  0  0  0  0  0  0  0  0
   15.1212    8.1729   13.9111 C   0  0  0  0  0  0  0  0  0  0  0  0
   15.0187    7.3599   12.7814 C   0  0  0  0  0  0  0  0  0  0  0  0
   14.8513    7.9170   11.5221 C   0  0  0  0  0  0  0  0  0  0  0  0
   14.8325    9.3155   11.4560 C   0  0  0  0  0  0  0  0  0  0  0  0
  1  2  1  0
  2  3  1  0
  3  4  1  0
  3  5  2  0
  5  6  1  0
  6  7  2  0
  8  7  1  6
  8  9  1  0
  9 10  1  0
 10 11  1  0
 10 12  1  0
  7 13  1  0
 13 14  2  0
 14 15  1  0
 15 16  2  0
 16  2  1  0
 16  6  1  0
 10  8  1  0
M  END
>  <ref_pdb>  (208) 
c0300a

>  <inchikey>  (208) 
UITUCYUSGMGMBQ-VIFPVBQESA-N

>  <original ID>  (208) 
UITUCYUSGMGMBQ-VIFPVBQESA-N

>  <generation_date>  (208) 
None

>  <alias>  (208) 
None

>  <tags>  (208) 
[]

>  <ref_mols>  (208) 
c0894a,c1134a

>  <ref_url>  (208) 
None

>  <submitter_name>  (208) 
None

>  <exports>  (208) 
nan

>  <original SMILES>  (208) 
Cn1c(O)nc2c([C@@H]3CC3(C)C)cccc21

>  <method>  (208) 
None

>  <submitter_email>  (208) 
None

>  <HIPPO ID>  (208) 
101967

$$$$
UITUCYUSGMGMBQ-SECBINFHSA-N
     RDKit          3D

 16 18  0  0  0  0  0  0  0  0999 V2000
   14.5517    9.6796    9.0619 C   0  0  0  0  0  0  0  0  0  0  0  0
   14.7158   10.1565   10.4072 N   0  0  0  0  0  0  0  0  0  0  0  0
   14.5991   11.4322   10.8638 C   0  0  0  0  0  0  0  0  0  0  0  0
   14.2505   12.4508   10.1183 O   0  0  0  0  0  0  0  0  0  0  0  0
   14.7943   11.5308   12.1469 N   0  0  0  0  0  0  0  0  0  0  0  0
   14.8803   10.2329   12.6032 C   0  0  0  0  0  0  0  0  0  0  0  0
   15.0074    9.7086   13.9109 C   0  0  0  0  0  0  0  0  0  0  0  0
   15.1368   10.5185   15.1891 C   0  0  1  0  0  0  0  0  0  0  0  0
   16.4507   11.2451   15.3696 C   0  0  0  0  0  0  0  0  0  0  0  0
   15.1623   12.0134   15.5082 C   0  0  0  0  0  0  0  0  0  0  0  0
   14.8683   12.4675   16.9208 C   0  0  0  0  0  0  0  0  0  0  0  0
   14.7723   13.0549   14.5020 C   0  0  0  0  0  0  0  0  0  0  0  0
   15.0368    8.2881   13.9954 C   0  0  0  0  0  0  0  0  0  0  0  0
   14.9261    7.4382   12.8929 C   0  0  0  0  0  0  0  0  0  0  0  0
   14.8009    7.9564   11.6162 C   0  0  0  0  0  0  0  0  0  0  0  0
   14.8091    9.3507   11.5109 C   0  0  0  0  0  0  0  0  0  0  0  0
  1  2  1  0
  2  3  1  0
  3  4  1  0
  3  5  2  0
  5  6  1  0
  6  7  2  0
  8  7  1  6
  8  9  1  0
  9 10  1  0
 10 11  1  0
 10 12  1  0
  7 13  1  0
 13 14  2  0
 14 15  1  0
 15 16  2  0
 16  2  1  0
 16  6  1  0
 10  8  1  0
M  END
>  <ref_pdb>  (209) 
c0300a

>  <inchikey>  (209) 
UITUCYUSGMGMBQ-SECBINFHSA-N

>  <original ID>  (209) 
UITUCYUSGMGMBQ-SECBINFHSA-N

>  <generation_date>  (209) 
None

>  <alias>  (209) 
None

>  <tags>  (209) 
[]

>  <ref_mols>  (209) 
c0894a,c1134a

>  <ref_url>  (209) 
None

>  <submitter_name>  (209) 
None

>  <exports>  (209) 
nan

>  <original SMILES>  (209) 
Cn1c(O)nc2c([C@H]3CC3(C)C)cccc21

>  <method>  (209) 
None

>  <submitter_email>  (209) 
None

>  <HIPPO ID>  (209) 
101968

$$$$
VGCMHDIRTGGDAV-MRVPVSSYSA-N
     RDKit          3D

 16 18  0  0  0  0  0  0  0  0999 V2000
   14.4189    9.6890    8.8864 C   0  0  0  0  0  0  0  0  0  0  0  0
   14.6672   10.0406   10.2502 N   0  0  0  0  0  0  0  0  0  0  0  0
   14.6362   11.2746   10.8309 C   0  0  0  0  0  0  0  0  0  0  0  0
   14.2903   12.3720   10.1990 O   0  0  0  0  0  0  0  0  0  0  0  0
   14.9156   11.2381   12.1075 N   0  0  0  0  0  0  0  0  0  0  0  0
   14.9857    9.8858   12.3940 C   0  0  0  0  0  0  0  0  0  0  0  0
   15.2713    9.2257   13.6075 C   0  0  0  0  0  0  0  0  0  0  0  0
   15.6899    9.9939   14.8257 C   0  0  2  0  0  0  0  0  0  0  0  0
   16.6944    9.3684   15.7769 C   0  0  0  0  0  0  0  0  0  0  0  0
   16.3413   10.0400   17.0831 C   0  0  0  0  0  0  0  0  0  0  0  0
   14.9149   10.1507   17.0741 O   0  0  0  0  0  0  0  0  0  0  0  0
   14.5012   10.2711   15.7058 C   0  0  0  0  0  0  0  0  0  0  0  0
   15.1696    7.8151   13.6068 C   0  0  0  0  0  0  0  0  0  0  0  0
   14.8993    7.0862   12.4481 C   0  0  0  0  0  0  0  0  0  0  0  0
   14.7269    7.7242   11.2290 C   0  0  0  0  0  0  0  0  0  0  0  0
   14.7847    9.1191   11.2476 C   0  0  0  0  0  0  0  0  0  0  0  0
  1  2  1  0
  2  3  1  0
  3  4  1  0
  3  5  2  0
  5  6  1  0
  6  7  2  0
  8  7  1  6
  8  9  1  0
  9 10  1  0
 10 11  1  0
 11 12  1  0
  7 13  1  0
 13 14  2  0
 14 15  1  0
 15 16  2  0
 16  2  1  0
 16  6  1  0
 12  8  1  0
M  END
>  <ref_pdb>  (210) 
c0300a

>  <inchikey>  (210) 
VGCMHDIRTGGDAV-MRVPVSSYSA-N

>  <original ID>  (210) 
VGCMHDIRTGGDAV-MRVPVSSYSA-N

>  <generation_date>  (210) 
None

>  <alias>  (210) 
None

>  <tags>  (210) 
[]

>  <ref_mols>  (210) 
c0894a,c1134a

>  <ref_url>  (210) 
None

>  <submitter_name>  (210) 
None

>  <exports>  (210) 
nan

>  <original SMILES>  (210) 
Cn1c(O)nc2c([C@@H]3CCOC3)cccc21

>  <method>  (210) 
None

>  <submitter_email>  (210) 
None

>  <HIPPO ID>  (210) 
101975

$$$$
VGCMHDIRTGGDAV-QMMMGPOBSA-N
     RDKit          3D

 16 18  0  0  0  0  0  0  0  0999 V2000
   14.5452    9.6862    9.0284 C   0  0  0  0  0  0  0  0  0  0  0  0
   14.7203   10.1583   10.3728 N   0  0  0  0  0  0  0  0  0  0  0  0
   14.6040   11.4334   10.8389 C   0  0  0  0  0  0  0  0  0  0  0  0
   14.2466   12.4557   10.1035 O   0  0  0  0  0  0  0  0  0  0  0  0
   14.8007   11.5275   12.1228 N   0  0  0  0  0  0  0  0  0  0  0  0
   14.8898   10.2245   12.5548 C   0  0  0  0  0  0  0  0  0  0  0  0
   14.9859    9.7096   13.8626 C   0  0  0  0  0  0  0  0  0  0  0  0
   14.9823   10.5160   15.1503 C   0  0  1  0  0  0  0  0  0  0  0  0
   16.3151   10.4921   15.8756 C   0  0  0  0  0  0  0  0  0  0  0  0
   16.9916   11.7804   15.4584 C   0  0  0  0  0  0  0  0  0  0  0  0
   15.9852   12.6755   14.9751 O   0  0  0  0  0  0  0  0  0  0  0  0
   14.7173   12.0170   15.0621 C   0  0  0  0  0  0  0  0  0  0  0  0
   15.0214    8.2934   13.9708 C   0  0  0  0  0  0  0  0  0  0  0  0
   14.9362    7.4413   12.8660 C   0  0  0  0  0  0  0  0  0  0  0  0
   14.8191    7.9513   11.5812 C   0  0  0  0  0  0  0  0  0  0  0  0
   14.8228    9.3449   11.4680 C   0  0  0  0  0  0  0  0  0  0  0  0
  1  2  1  0
  2  3  1  0
  3  4  1  0
  3  5  2  0
  5  6  1  0
  6  7  2  0
  8  7  1  6
  8  9  1  0
  9 10  1  0
 10 11  1  0
 11 12  1  0
  7 13  1  0
 13 14  2  0
 14 15  1  0
 15 16  2  0
 16  2  1  0
 16  6  1  0
 12  8  1  0
M  END
>  <ref_pdb>  (211) 
c0300a

>  <inchikey>  (211) 
VGCMHDIRTGGDAV-QMMMGPOBSA-N

>  <original ID>  (211) 
VGCMHDIRTGGDAV-QMMMGPOBSA-N

>  <generation_date>  (211) 
None

>  <alias>  (211) 
None

>  <tags>  (211) 
[]

>  <ref_mols>  (211) 
c0894a,c1134a

>  <ref_url>  (211) 
None

>  <submitter_name>  (211) 
None

>  <exports>  (211) 
nan

>  <original SMILES>  (211) 
Cn1c(O)nc2c([C@H]3CCOC3)cccc21

>  <method>  (211) 
None

>  <submitter_email>  (211) 
None

>  <HIPPO ID>  (211) 
101976

$$$$
FOCPTZRNNDZANF-MRVPVSSYSA-N
     RDKit          3D

 16 18  0  0  0  0  0  0  0  0999 V2000
   14.5191    9.8806    9.1959 C   0  0  0  0  0  0  0  0  0  0  0  0
   14.7201   10.1583   10.5927 N   0  0  0  0  0  0  0  0  0  0  0  0
   14.6112   11.3268   11.2857 C   0  0  0  0  0  0  0  0  0  0  0  0
   13.8219   12.6867   10.7144 Cl  0  0  0  0  0  0  0  0  0  0  0  0
   14.9177   11.2116   12.5444 N   0  0  0  0  0  0  0  0  0  0  0  0
   14.9710    9.8664   12.7499 C   0  0  0  0  0  0  0  0  0  0  0  0
   15.1132    9.1741   13.9623 C   0  0  0  0  0  0  0  0  0  0  0  0
   15.2348    9.8404   15.3100 C   0  0  2  0  0  0  0  0  0  0  0  0
   15.3608   11.3563   15.3613 C   0  0  0  0  0  0  0  0  0  0  0  0
   15.8686   11.5871   16.7659 C   0  0  0  0  0  0  0  0  0  0  0  0
   16.6620   10.4425   17.1075 O   0  0  0  0  0  0  0  0  0  0  0  0
   16.4861    9.4494   16.0852 C   0  0  0  0  0  0  0  0  0  0  0  0
   15.0904    7.7640   13.8708 C   0  0  0  0  0  0  0  0  0  0  0  0
   14.9436    7.0878   12.6540 C   0  0  0  0  0  0  0  0  0  0  0  0
   14.8081    7.7781   11.4553 C   0  0  0  0  0  0  0  0  0  0  0  0
   14.8358    9.1715   11.5441 C   0  0  0  0  0  0  0  0  0  0  0  0
  1  2  1  0
  2  3  1  0
  3  4  1  0
  3  5  2  0
  5  6  1  0
  6  7  2  0
  8  7  1  6
  8  9  1  0
  9 10  1  0
 10 11  1  0
 11 12  1  0
  7 13  1  0
 13 14  2  0
 14 15  1  0
 15 16  2  0
 16  2  1  0
 16  6  1  0
 12  8  1  0
M  END
>  <ref_pdb>  (212) 
c0300a

>  <inchikey>  (212) 
FOCPTZRNNDZANF-MRVPVSSYSA-N

>  <original ID>  (212) 
FOCPTZRNNDZANF-MRVPVSSYSA-N

>  <generation_date>  (212) 
None

>  <alias>  (212) 
None

>  <tags>  (212) 
[]

>  <ref_mols>  (212) 
c0894a,c1134a

>  <ref_url>  (212) 
None

>  <submitter_name>  (212) 
None

>  <exports>  (212) 
nan

>  <original SMILES>  (212) 
Cn1c(Cl)nc2c([C@@H]3CCOC3)cccc21

>  <method>  (212) 
None

>  <submitter_email>  (212) 
None

>  <HIPPO ID>  (212) 
102129

$$$$
FOCPTZRNNDZANF-QMMMGPOBSA-N
     RDKit          3D

 16 18  0  0  0  0  0  0  0  0999 V2000
   14.4785    9.8754    9.1556 C   0  0  0  0  0  0  0  0  0  0  0  0
   14.7031   10.1227   10.5532 N   0  0  0  0  0  0  0  0  0  0  0  0
   14.6310   11.2780   11.2725 C   0  0  0  0  0  0  0  0  0  0  0  0
   13.8594   12.6658   10.7389 Cl  0  0  0  0  0  0  0  0  0  0  0  0
   14.9740   11.1297   12.5197 N   0  0  0  0  0  0  0  0  0  0  0  0
   15.0043    9.7765   12.6938 C   0  0  0  0  0  0  0  0  0  0  0  0
   15.2042    9.0459   13.8761 C   0  0  0  0  0  0  0  0  0  0  0  0
   15.5173    9.6709   15.2114 C   0  0  1  0  0  0  0  0  0  0  0  0
   15.3119   11.1693   15.3728 C   0  0  0  0  0  0  0  0  0  0  0  0
   15.3212   11.3140   16.8755 C   0  0  0  0  0  0  0  0  0  0  0  0
   14.6711   10.1410   17.3896 O   0  0  0  0  0  0  0  0  0  0  0  0
   14.6650    9.1421   16.3576 C   0  0  0  0  0  0  0  0  0  0  0  0
   15.1895    7.6380   13.7434 C   0  0  0  0  0  0  0  0  0  0  0  0
   14.9703    6.9970   12.5202 C   0  0  0  0  0  0  0  0  0  0  0  0
   14.7801    7.7225   11.3514 C   0  0  0  0  0  0  0  0  0  0  0  0
   14.8226    9.1124   11.4771 C   0  0  0  0  0  0  0  0  0  0  0  0
  1  2  1  0
  2  3  1  0
  3  4  1  0
  3  5  2  0
  5  6  1  0
  6  7  2  0
  8  7  1  6
  8  9  1  0
  9 10  1  0
 10 11  1  0
 11 12  1  0
  7 13  1  0
 13 14  2  0
 14 15  1  0
 15 16  2  0
 16  2  1  0
 16  6  1  0
 12  8  1  0
M  END
>  <ref_pdb>  (213) 
c0300a

>  <inchikey>  (213) 
FOCPTZRNNDZANF-QMMMGPOBSA-N

>  <original ID>  (213) 
FOCPTZRNNDZANF-QMMMGPOBSA-N

>  <generation_date>  (213) 
None

>  <alias>  (213) 
None

>  <tags>  (213) 
[]

>  <ref_mols>  (213) 
c0894a,c1134a

>  <ref_url>  (213) 
None

>  <submitter_name>  (213) 
None

>  <exports>  (213) 
nan

>  <original SMILES>  (213) 
Cn1c(Cl)nc2c([C@H]3CCOC3)cccc21

>  <method>  (213) 
None

>  <submitter_email>  (213) 
None

>  <HIPPO ID>  (213) 
102130

$$$$
KLYQQFRYWZYXDU-MRVPVSSYSA-N
     RDKit          3D

 16 18  0  0  0  0  0  0  0  0999 V2000
   14.5654    9.6938    9.8147 C   0  0  0  0  0  0  0  0  0  0  0  0
   14.6557    9.6815   11.2668 N   0  0  0  0  0  0  0  0  0  0  0  0
   14.5406   10.6847   12.2425 C   0  0  0  0  0  0  0  0  0  0  0  0
   14.6151   12.1422   12.1526 C   0  0  2  0  0  0  0  0  0  0  0  0
   13.4710   13.0692   12.2236 C   0  0  0  0  0  0  0  0  0  0  0  0
   12.9003   13.0489   10.8362 C   0  0  0  0  0  0  0  0  0  0  0  0
   13.9901   12.6606    9.9967 O   0  0  0  0  0  0  0  0  0  0  0  0
   15.1085   12.5207   10.8415 C   0  0  0  0  0  0  0  0  0  0  0  0
   14.6104   10.1808   13.4456 N   0  0  0  0  0  0  0  0  0  0  0  0
   14.8332    8.8590   13.2827 C   0  0  0  0  0  0  0  0  0  0  0  0
   15.0828    7.9098   14.2621 C   0  0  0  0  0  0  0  0  0  0  0  0
   15.1904    8.4817   16.0520 Br  0  0  0  0  0  0  0  0  0  0  0  0
   15.2601    6.5867   13.8697 C   0  0  0  0  0  0  0  0  0  0  0  0
   15.1722    6.2262   12.5188 C   0  0  0  0  0  0  0  0  0  0  0  0
   14.9320    7.1709   11.5203 C   0  0  0  0  0  0  0  0  0  0  0  0
   14.7952    8.4920   11.9461 C   0  0  0  0  0  0  0  0  0  0  0  0
  1  2  1  0
  2  3  1  0
  4  3  1  6
  4  5  1  0
  5  6  1  0
  6  7  1  0
  7  8  1  0
  3  9  2  0
  9 10  1  0
 10 11  2  0
 11 12  1  0
 11 13  1  0
 13 14  2  0
 14 15  1  0
 15 16  2  0
 16  2  1  0
  8  4  1  0
 16 10  1  0
M  END
>  <ref_pdb>  (214) 
c0300a

>  <inchikey>  (214) 
KLYQQFRYWZYXDU-MRVPVSSYSA-N

>  <original ID>  (214) 
KLYQQFRYWZYXDU-MRVPVSSYSA-N

>  <generation_date>  (214) 
None

>  <alias>  (214) 
None

>  <tags>  (214) 
[]

>  <ref_mols>  (214) 
c0894a,c1134a

>  <ref_url>  (214) 
None

>  <submitter_name>  (214) 
None

>  <exports>  (214) 
nan

>  <original SMILES>  (214) 
Cn1c([C@@H]2CCOC2)nc2c(Br)cccc21

>  <method>  (214) 
None

>  <submitter_email>  (214) 
None

>  <HIPPO ID>  (214) 
102131

$$$$
KLYQQFRYWZYXDU-QMMMGPOBSA-N
     RDKit          3D

 16 18  0  0  0  0  0  0  0  0999 V2000
   14.9337    9.7074    9.4721 C   0  0  0  0  0  0  0  0  0  0  0  0
   14.8785    9.7038   10.9168 N   0  0  0  0  0  0  0  0  0  0  0  0
   14.8837   10.7512   11.8153 C   0  0  0  0  0  0  0  0  0  0  0  0
   14.7915   12.1669   11.5141 C   0  0  1  0  0  0  0  0  0  0  0  0
   13.7502   12.4307   10.5221 C   0  0  0  0  0  0  0  0  0  0  0  0
   12.9078   13.4841   11.0499 C   0  0  0  0  0  0  0  0  0  0  0  0
   13.7611   14.0853   12.0313 O   0  0  0  0  0  0  0  0  0  0  0  0
   14.4035   13.0226   12.6901 C   0  0  0  0  0  0  0  0  0  0  0  0
   14.9464   10.3379   13.0501 N   0  0  0  0  0  0  0  0  0  0  0  0
   14.8996    8.9873   12.9763 C   0  0  0  0  0  0  0  0  0  0  0  0
   14.9252    8.0683   14.0168 C   0  0  0  0  0  0  0  0  0  0  0  0
   15.0179    8.7058   15.7866 Br  0  0  0  0  0  0  0  0  0  0  0  0
   14.8691    6.7147   13.6980 C   0  0  0  0  0  0  0  0  0  0  0  0
   14.7673    6.2981   12.3626 C   0  0  0  0  0  0  0  0  0  0  0  0
   14.7243    7.2081   11.3044 C   0  0  0  0  0  0  0  0  0  0  0  0
   14.8092    8.5513   11.6570 C   0  0  0  0  0  0  0  0  0  0  0  0
  1  2  1  0
  2  3  1  0
  4  3  1  1
  4  5  1  0
  5  6  1  0
  6  7  1  0
  7  8  1  0
  3  9  2  0
  9 10  1  0
 10 11  2  0
 11 12  1  0
 11 13  1  0
 13 14  2  0
 14 15  1  0
 15 16  2  0
 16  2  1  0
  8  4  1  0
 16 10  1  0
M  END
>  <ref_pdb>  (215) 
c0300a

>  <inchikey>  (215) 
KLYQQFRYWZYXDU-QMMMGPOBSA-N

>  <original ID>  (215) 
KLYQQFRYWZYXDU-QMMMGPOBSA-N

>  <generation_date>  (215) 
None

>  <alias>  (215) 
None

>  <tags>  (215) 
[]

>  <ref_mols>  (215) 
c0894a,c1134a

>  <ref_url>  (215) 
None

>  <submitter_name>  (215) 
None

>  <exports>  (215) 
nan

>  <original SMILES>  (215) 
Cn1c([C@H]2CCOC2)nc2c(Br)cccc21

>  <method>  (215) 
None

>  <submitter_email>  (215) 
None

>  <HIPPO ID>  (215) 
102132

$$$$
HAXOKYHPHJGBGQ-VIFPVBQESA-N
     RDKit          3D

 16 18  0  0  0  0  0  0  0  0999 V2000
   14.5186    9.7507    9.1085 C   0  0  0  0  0  0  0  0  0  0  0  0
   14.7330    9.9798   10.5104 N   0  0  0  0  0  0  0  0  0  0  0  0
   14.6587   11.1400   11.2225 C   0  0  0  0  0  0  0  0  0  0  0  0
   14.0141   12.5499   10.6002 Cl  0  0  0  0  0  0  0  0  0  0  0  0
   14.8965   10.9940   12.4935 N   0  0  0  0  0  0  0  0  0  0  0  0
   14.9295    9.6379   12.6639 C   0  0  0  0  0  0  0  0  0  0  0  0
   15.0211    8.8977   13.8528 C   0  0  0  0  0  0  0  0  0  0  0  0
   15.0154    9.6351   15.1543 C   0  0  2  0  0  0  0  0  0  0  0  0
   15.9758   10.7621   15.4546 C   0  0  0  0  0  0  0  0  0  0  0  0
   16.1171    9.4518   16.1862 C   0  0  0  0  0  0  0  0  0  0  0  0
   15.6873    9.3899   17.6255 C   0  0  0  0  0  0  0  0  0  0  0  0
   17.3392    8.6263   15.8839 C   0  0  0  0  0  0  0  0  0  0  0  0
   15.0047    7.4967   13.7305 C   0  0  0  0  0  0  0  0  0  0  0  0
   14.9040    6.8571   12.4918 C   0  0  0  0  0  0  0  0  0  0  0  0
   14.7995    7.5833   11.3106 C   0  0  0  0  0  0  0  0  0  0  0  0
   14.8240    8.9731   11.4364 C   0  0  0  0  0  0  0  0  0  0  0  0
  1  2  1  0
  2  3  1  0
  3  4  1  0
  3  5  2  0
  5  6  1  0
  6  7  2  0
  8  7  1  6
  8  9  1  0
  9 10  1  0
 10 11  1  0
 10 12  1  0
  7 13  1  0
 13 14  2  0
 14 15  1  0
 15 16  2  0
 16  2  1  0
 16  6  1  0
 10  8  1  0
M  END
>  <ref_pdb>  (216) 
c0300a

>  <inchikey>  (216) 
HAXOKYHPHJGBGQ-VIFPVBQESA-N

>  <original ID>  (216) 
HAXOKYHPHJGBGQ-VIFPVBQESA-N

>  <generation_date>  (216) 
None

>  <alias>  (216) 
None

>  <tags>  (216) 
[]

>  <ref_mols>  (216) 
c0894a,c1134a

>  <ref_url>  (216) 
None

>  <submitter_name>  (216) 
None

>  <exports>  (216) 
nan

>  <original SMILES>  (216) 
Cn1c(Cl)nc2c([C@@H]3CC3(C)C)cccc21

>  <method>  (216) 
None

>  <submitter_email>  (216) 
None

>  <HIPPO ID>  (216) 
102135

$$$$
HAXOKYHPHJGBGQ-SECBINFHSA-N
     RDKit          3D

 16 18  0  0  0  0  0  0  0  0999 V2000
   14.5564    9.9202    9.2711 C   0  0  0  0  0  0  0  0  0  0  0  0
   14.7329   10.2055   10.6713 N   0  0  0  0  0  0  0  0  0  0  0  0
   14.5916   11.3769   11.3567 C   0  0  0  0  0  0  0  0  0  0  0  0
   13.7848   12.7138   10.7532 Cl  0  0  0  0  0  0  0  0  0  0  0  0
   14.8827   11.2795   12.6215 N   0  0  0  0  0  0  0  0  0  0  0  0
   14.9805    9.9341   12.8309 C   0  0  0  0  0  0  0  0  0  0  0  0
   15.1122    9.2446   14.0483 C   0  0  0  0  0  0  0  0  0  0  0  0
   15.0036   10.0663   15.2942 C   0  0  1  0  0  0  0  0  0  0  0  0
   15.6136    9.6379   16.6017 C   0  0  0  0  0  0  0  0  0  0  0  0
   16.1286   10.8809   15.9159 C   0  0  0  0  0  0  0  0  0  0  0  0
   15.7516   12.2293   16.4792 C   0  0  0  0  0  0  0  0  0  0  0  0
   17.5421   10.8300   15.4169 C   0  0  0  0  0  0  0  0  0  0  0  0
   15.1425    7.8407   13.9770 C   0  0  0  0  0  0  0  0  0  0  0  0
   15.0245    7.1528   12.7626 C   0  0  0  0  0  0  0  0  0  0  0  0
   14.8627    7.8304   11.5565 C   0  0  0  0  0  0  0  0  0  0  0  0
   14.8630    9.2273   11.6296 C   0  0  0  0  0  0  0  0  0  0  0  0
  1  2  1  0
  2  3  1  0
  3  4  1  0
  3  5  2  0
  5  6  1  0
  6  7  2  0
  8  7  1  6
  8  9  1  0
  9 10  1  0
 10 11  1  0
 10 12  1  0
  7 13  1  0
 13 14  2  0
 14 15  1  0
 15 16  2  0
 16  2  1  0
 16  6  1  0
 10  8  1  0
M  END
>  <ref_pdb>  (217) 
c0300a

>  <inchikey>  (217) 
HAXOKYHPHJGBGQ-SECBINFHSA-N

>  <original ID>  (217) 
HAXOKYHPHJGBGQ-SECBINFHSA-N

>  <generation_date>  (217) 
None

>  <alias>  (217) 
None

>  <tags>  (217) 
[]

>  <ref_mols>  (217) 
c0894a,c1134a

>  <ref_url>  (217) 
None

>  <submitter_name>  (217) 
None

>  <exports>  (217) 
nan

>  <original SMILES>  (217) 
Cn1c(Cl)nc2c([C@H]3CC3(C)C)cccc21

>  <method>  (217) 
None

>  <submitter_email>  (217) 
None

>  <HIPPO ID>  (217) 
102136

$$$$
DYQZTXOXVNFDMU-QMMMGPOBSA-N
     RDKit          3D

 16 18  0  0  0  0  0  0  0  0999 V2000
   14.4347    9.8267    9.1025 C   0  0  0  0  0  0  0  0  0  0  0  0
   14.6538   10.0399   10.5051 N   0  0  0  0  0  0  0  0  0  0  0  0
   14.5132   11.1958   11.2386 C   0  0  0  0  0  0  0  0  0  0  0  0
   14.0812   12.6104   10.8123 C   0  0  2  0  0  0  0  0  0  0  0  0
   13.6424   13.4291   11.9921 C   0  0  0  0  0  0  0  0  0  0  0  0
   12.7299   13.3341   10.7940 C   0  0  0  0  0  0  0  0  0  0  0  0
   11.4823   12.6642   10.7197 C   0  0  0  0  0  0  0  0  0  0  0  0
   12.3547   14.4625    9.9486 C   0  0  0  0  0  0  0  0  0  0  0  0
   14.8383   10.9971   12.4950 N   0  0  0  0  0  0  0  0  0  0  0  0
   14.9173    9.6461   12.6383 C   0  0  0  0  0  0  0  0  0  0  0  0
   15.0792    8.8757   13.7935 C   0  0  0  0  0  0  0  0  0  0  0  0
   15.2183    9.7147   15.4738 Br  0  0  0  0  0  0  0  0  0  0  0  0
   15.1153    7.4850   13.6728 C   0  0  0  0  0  0  0  0  0  0  0  0
   14.9789    6.8729   12.4224 C   0  0  0  0  0  0  0  0  0  0  0  0
   14.8090    7.6213   11.2563 C   0  0  0  0  0  0  0  0  0  0  0  0
   14.7968    9.0116   11.4029 C   0  0  0  0  0  0  0  0  0  0  0  0
  1  2  1  0
  2  3  1  0
  4  3  1  1
  4  5  1  0
  5  6  1  0
  6  7  1  0
  6  8  1  0
  3  9  2  0
  9 10  1  0
 10 11  2  0
 11 12  1  0
 11 13  1  0
 13 14  2  0
 14 15  1  0
 15 16  2  0
 16  2  1  0
  6  4  1  0
 16 10  1  0
M  END
>  <ref_pdb>  (218) 
c0300a

>  <inchikey>  (218) 
DYQZTXOXVNFDMU-QMMMGPOBSA-N

>  <original ID>  (218) 
DYQZTXOXVNFDMU-QMMMGPOBSA-N

>  <generation_date>  (218) 
None

>  <alias>  (218) 
None

>  <tags>  (218) 
[]

>  <ref_mols>  (218) 
c0894a,c1134a

>  <ref_url>  (218) 
None

>  <submitter_name>  (218) 
None

>  <exports>  (218) 
nan

>  <original SMILES>  (218) 
Cn1c([C@@H]2CC2(C)C)nc2c(Br)cccc21

>  <method>  (218) 
None

>  <submitter_email>  (218) 
None

>  <HIPPO ID>  (218) 
102137

$$$$
DYQZTXOXVNFDMU-MRVPVSSYSA-N
     RDKit          3D

 16 18  0  0  0  0  0  0  0  0999 V2000
   14.4740    8.2343   10.6460 C   0  0  0  0  0  0  0  0  0  0  0  0
   14.7801    8.1261   12.0540 N   0  0  0  0  0  0  0  0  0  0  0  0
   14.7665    9.0467   13.0864 C   0  0  0  0  0  0  0  0  0  0  0  0
   14.2237   10.5159   13.2624 C   0  0  1  0  0  0  0  0  0  0  0  0
   15.3002   11.4735   13.6667 C   0  0  0  0  0  0  0  0  0  0  0  0
   14.4853   11.7337   12.4178 C   0  0  0  0  0  0  0  0  0  0  0  0
   13.7018   13.0007   12.5323 C   0  0  0  0  0  0  0  0  0  0  0  0
   14.9194   11.5223   11.0199 C   0  0  0  0  0  0  0  0  0  0  0  0
   15.2556    8.5210   14.1864 N   0  0  0  0  0  0  0  0  0  0  0  0
   15.6021    7.2403   13.8839 C   0  0  0  0  0  0  0  0  0  0  0  0
   16.1979    6.2627   14.6873 C   0  0  0  0  0  0  0  0  0  0  0  0
   16.6472    6.6612   16.4760 Br  0  0  0  0  0  0  0  0  0  0  0  0
   16.4603    5.0049   14.1390 C   0  0  0  0  0  0  0  0  0  0  0  0
   16.1266    4.7265   12.8104 C   0  0  0  0  0  0  0  0  0  0  0  0
   15.5335    5.6919   11.9911 C   0  0  0  0  0  0  0  0  0  0  0  0
   15.2927    6.9463   12.5638 C   0  0  0  0  0  0  0  0  0  0  0  0
  1  2  1  0
  2  3  1  0
  4  3  1  6
  4  5  1  0
  5  6  1  0
  6  7  1  0
  6  8  1  0
  3  9  2  0
  9 10  1  0
 10 11  2  0
 11 12  1  0
 11 13  1  0
 13 14  2  0
 14 15  1  0
 15 16  2  0
 16  2  1  0
  6  4  1  0
 16 10  1  0
M  END
>  <ref_pdb>  (219) 
c0300a

>  <inchikey>  (219) 
DYQZTXOXVNFDMU-MRVPVSSYSA-N

>  <original ID>  (219) 
DYQZTXOXVNFDMU-MRVPVSSYSA-N

>  <generation_date>  (219) 
None

>  <alias>  (219) 
None

>  <tags>  (219) 
[]

>  <ref_mols>  (219) 
c0894a,c1134a

>  <ref_url>  (219) 
None

>  <submitter_name>  (219) 
None

>  <exports>  (219) 
nan

>  <original SMILES>  (219) 
Cn1c([C@H]2CC2(C)C)nc2c(Br)cccc21

>  <method>  (219) 
None

>  <submitter_email>  (219) 
None

>  <HIPPO ID>  (219) 
102138

$$$$
GPVLNAZKLVSMSD-UHFFFAOYSA-N
     RDKit          3D

 16 18  0  0  0  0  0  0  0  0999 V2000
   14.3946   11.2721   10.1220 C   0  0  0  0  0  0  0  0  0  0  0  0
   14.5767   11.2512   11.5270 N   0  0  0  0  0  0  0  0  0  0  0  0
   14.4347   12.3986   12.2561 C   0  0  0  0  0  0  0  0  0  0  0  0
   14.6581   12.1773   13.5168 N   0  0  0  0  0  0  0  0  0  0  0  0
   14.8181   10.8236   13.6034 C   0  0  0  0  0  0  0  0  0  0  0  0
   14.9740   10.1039   14.7836 C   0  0  0  0  0  0  0  0  0  0  0  0
   15.0119    8.7301   14.7097 C   0  0  0  0  0  0  0  0  0  0  0  0
   14.9583    8.0993   13.4732 C   0  0  0  0  0  0  0  0  0  0  0  0
   14.9196    8.7619   12.2035 C   0  0  0  0  0  0  0  0  0  0  0  0
   15.0393    7.8603   10.9154 C   0  0  0  0  0  0  0  0  0  0  0  0
   15.6824    8.5732    9.7085 C   0  0  0  0  0  0  0  0  0  0  0  0
   15.7835    6.5474   11.2970 C   0  0  0  0  0  0  0  0  0  0  0  0
   13.6809    7.3735   10.5601 C   0  0  0  0  0  0  0  0  0  0  0  0
   13.3077    6.2434    9.6554 C   0  0  0  0  0  0  0  0  0  0  0  0
   13.1675    7.6643    9.1852 C   0  0  0  0  0  0  0  0  0  0  0  0
   14.7928   10.1794   12.3530 C   0  0  0  0  0  0  0  0  0  0  0  0
  1  2  1  0
  2  3  1  0
  3  4  2  0
  4  5  1  0
  5  6  2  0
  6  7  1  0
  7  8  2  0
  8  9  1  0
  9 10  1  0
 10 11  1  0
 10 12  1  0
 10 13  1  0
 13 14  1  0
 14 15  1  0
  9 16  2  0
 16  2  1  0
 16  5  1  0
 15 13  1  0
M  END
>  <ref_pdb>  (220) 
c0300a

>  <inchikey>  (220) 
GPVLNAZKLVSMSD-UHFFFAOYSA-N

>  <original ID>  (220) 
GPVLNAZKLVSMSD-UHFFFAOYSA-N

>  <generation_date>  (220) 
None

>  <alias>  (220) 
None

>  <tags>  (220) 
[]

>  <ref_mols>  (220) 
c0894a,c1134a

>  <ref_url>  (220) 
None

>  <submitter_name>  (220) 
None

>  <exports>  (220) 
nan

>  <original SMILES>  (220) 
Cn1cnc2cccc(C(C)(C)C3CC3)c21

>  <method>  (220) 
None

>  <submitter_email>  (220) 
None

>  <HIPPO ID>  (220) 
102330

$$$$
IJJCWSBLSYJQAV-UHFFFAOYSA-N
     RDKit          3D

 16 18  0  0  0  0  0  0  0  0999 V2000
   13.8400   12.2228   10.8101 C   0  0  0  0  0  0  0  0  0  0  0  0
   14.3678   11.6902   12.0212 N   0  0  0  0  0  0  0  0  0  0  0  0
   14.4195   12.4427   13.1554 C   0  0  0  0  0  0  0  0  0  0  0  0
   14.7521   11.7156   14.1872 N   0  0  0  0  0  0  0  0  0  0  0  0
   14.8804   10.4434   13.7012 C   0  0  0  0  0  0  0  0  0  0  0  0
   15.1105    9.2689   14.4262 C   0  0  0  0  0  0  0  0  0  0  0  0
   15.1458    8.0501   13.7551 C   0  0  0  0  0  0  0  0  0  0  0  0
   15.0169    8.0132   12.3720 C   0  0  0  0  0  0  0  0  0  0  0  0
   14.8608    9.1862   11.5867 C   0  0  0  0  0  0  0  0  0  0  0  0
   14.8161    9.1103   10.0869 C   0  0  0  0  0  0  0  0  0  0  0  0
   13.7505    8.2106    9.5467 C   0  0  0  0  0  0  0  0  0  0  0  0
   12.8401    9.0278    8.6897 C   0  0  0  0  0  0  0  0  0  0  0  0
   12.7481    8.4645    7.4094 O   0  0  0  0  0  0  0  0  0  0  0  0
   15.4050   10.2435    9.2324 C   0  0  0  0  0  0  0  0  0  0  0  0
   16.0754    8.9608    9.3061 C   0  0  0  0  0  0  0  0  0  0  0  0
   14.7301   10.3964   12.3132 C   0  0  0  0  0  0  0  0  0  0  0  0
  1  2  1  0
  2  3  1  0
  3  4  2  0
  4  5  1  0
  5  6  2  0
  6  7  1  0
  7  8  2  0
  8  9  1  0
  9 10  1  0
 10 11  1  0
 11 12  1  0
 12 13  1  0
 10 14  1  0
 14 15  1  0
  9 16  2  0
 16  2  1  0
 16  5  1  0
 15 10  1  0
M  END
>  <ref_pdb>  (221) 
c0300a

>  <inchikey>  (221) 
IJJCWSBLSYJQAV-UHFFFAOYSA-N

>  <original ID>  (221) 
IJJCWSBLSYJQAV-UHFFFAOYSA-N

>  <generation_date>  (221) 
None

>  <alias>  (221) 
None

>  <tags>  (221) 
[]

>  <ref_mols>  (221) 
c0894a,c1134a

>  <ref_url>  (221) 
None

>  <submitter_name>  (221) 
None

>  <exports>  (221) 
nan

>  <original SMILES>  (221) 
Cn1cnc2cccc(C3(CCO)CC3)c21

>  <method>  (221) 
None

>  <submitter_email>  (221) 
None

>  <HIPPO ID>  (221) 
102358

$$$$
LEIXFELPTIRADX-AWEZNQCLSA-N
     RDKit          3D

 16 18  0  0  0  0  0  0  0  0999 V2000
   14.4138   11.4869   10.2364 C   0  0  0  0  0  0  0  0  0  0  0  0
   14.5896   11.4289   11.6350 N   0  0  0  0  0  0  0  0  0  0  0  0
   14.4924   12.5677   12.3824 C   0  0  0  0  0  0  0  0  0  0  0  0
   14.6984   12.3130   13.6395 N   0  0  0  0  0  0  0  0  0  0  0  0
   14.7421   10.9500   13.7054 C   0  0  0  0  0  0  0  0  0  0  0  0
   14.7933   10.2009   14.8775 C   0  0  0  0  0  0  0  0  0  0  0  0
   14.6523    8.8359   14.7860 C   0  0  0  0  0  0  0  0  0  0  0  0
   14.5789    8.2435   13.5360 C   0  0  0  0  0  0  0  0  0  0  0  0
   14.7247    8.9235   12.2802 C   0  0  0  0  0  0  0  0  0  0  0  0
   14.9980    8.0636   11.0432 C   0  0  2  0  0  0  0  0  0  0  0  0
   15.7223    6.7832   11.5101 C   0  0  0  0  0  0  0  0  0  0  0  0
   15.5075    8.5137    9.7617 C   0  0  0  0  0  0  0  0  0  0  0  0
   14.1163    7.9072    9.7402 C   0  0  0  0  0  0  0  0  0  0  0  0
   13.6575    6.4656    9.6705 C   0  0  0  0  0  0  0  0  0  0  0  0
   13.4295    8.7253    8.6820 C   0  0  0  0  0  0  0  0  0  0  0  0
   14.7127   10.3341   12.4414 C   0  0  0  0  0  0  0  0  0  0  0  0
  1  2  1  0
  2  3  1  0
  3  4  2  0
  4  5  1  0
  5  6  2  0
  6  7  1  0
  7  8  2  0
  8  9  1  0
  9 10  1  0
 10 11  1  1
 10 12  1  0
 12 13  1  0
 13 14  1  0
 13 15  1  0
  9 16  2  0
 16  2  1  0
 16  5  1  0
 13 10  1  0
M  END
>  <ref_pdb>  (222) 
c0300a

>  <inchikey>  (222) 
LEIXFELPTIRADX-AWEZNQCLSA-N

>  <original ID>  (222) 
LEIXFELPTIRADX-AWEZNQCLSA-N

>  <generation_date>  (222) 
None

>  <alias>  (222) 
None

>  <tags>  (222) 
[]

>  <ref_mols>  (222) 
c0894a,c1134a

>  <ref_url>  (222) 
None

>  <submitter_name>  (222) 
None

>  <exports>  (222) 
nan

>  <original SMILES>  (222) 
Cn1cnc2cccc([C@]3(C)CC3(C)C)c21

>  <method>  (222) 
None

>  <submitter_email>  (222) 
None

>  <HIPPO ID>  (222) 
102365

$$$$
LEIXFELPTIRADX-CQSZACIVSA-N
     RDKit          3D

 16 18  0  0  0  0  0  0  0  0999 V2000
   13.9188   12.0269   10.7092 C   0  0  0  0  0  0  0  0  0  0  0  0
   14.4208   11.5683   11.9577 N   0  0  0  0  0  0  0  0  0  0  0  0
   14.4987   12.4701   12.9838 C   0  0  0  0  0  0  0  0  0  0  0  0
   14.8223   11.8881   14.1011 N   0  0  0  0  0  0  0  0  0  0  0  0
   14.8628   10.5566   13.8010 C   0  0  0  0  0  0  0  0  0  0  0  0
   15.0545    9.5088   14.7070 C   0  0  0  0  0  0  0  0  0  0  0  0
   15.0157    8.2006   14.2536 C   0  0  0  0  0  0  0  0  0  0  0  0
   14.8397    7.9499   12.9037 C   0  0  0  0  0  0  0  0  0  0  0  0
   14.7080    8.9761   11.9257 C   0  0  0  0  0  0  0  0  0  0  0  0
   14.7790    8.5702   10.4954 C   0  0  1  0  0  0  0  0  0  0  0  0
   16.1142    8.1207   10.1116 C   0  0  0  0  0  0  0  0  0  0  0  0
   13.8939    7.6265    9.9123 C   0  0  0  0  0  0  0  0  0  0  0  0
   14.0552    9.1004    9.2770 C   0  0  0  0  0  0  0  0  0  0  0  0
   12.8786    8.9925    8.4204 C   0  0  0  0  0  0  0  0  0  0  0  0
   15.1278    9.9393    8.6018 C   0  0  0  0  0  0  0  0  0  0  0  0
   14.6800   10.3058   12.4322 C   0  0  0  0  0  0  0  0  0  0  0  0
  1  2  1  0
  2  3  1  0
  3  4  2  0
  4  5  1  0
  5  6  2  0
  6  7  1  0
  7  8  2  0
  8  9  1  0
  9 10  1  0
 10 11  1  6
 10 12  1  0
 12 13  1  0
 13 14  1  0
 13 15  1  0
  9 16  2  0
 16  2  1  0
 16  5  1  0
 13 10  1  0
M  END
>  <ref_pdb>  (223) 
c0300a

>  <inchikey>  (223) 
LEIXFELPTIRADX-CQSZACIVSA-N

>  <original ID>  (223) 
LEIXFELPTIRADX-CQSZACIVSA-N

>  <generation_date>  (223) 
None

>  <alias>  (223) 
None

>  <tags>  (223) 
[]

>  <ref_mols>  (223) 
c0894a,c1134a

>  <ref_url>  (223) 
None

>  <submitter_name>  (223) 
None

>  <exports>  (223) 
nan

>  <original SMILES>  (223) 
Cn1cnc2cccc([C@@]3(C)CC3(C)C)c21

>  <method>  (223) 
None

>  <submitter_email>  (223) 
None

>  <HIPPO ID>  (223) 
102366

$$$$
TVJYIAPIDJCYEW-VIFPVBQESA-N
     RDKit          3D

 16 18  0  0  0  0  0  0  0  0999 V2000
   14.3239   11.5041   10.3905 C   0  0  0  0  0  0  0  0  0  0  0  0
   14.4712   11.3539   11.7925 N   0  0  0  0  0  0  0  0  0  0  0  0
   14.5387   12.4310   12.6324 C   0  0  0  0  0  0  0  0  0  0  0  0
   14.4859   13.6960   12.2051 N   0  0  0  0  0  0  0  0  0  0  0  0
   14.8251   12.0623   13.8450 N   0  0  0  0  0  0  0  0  0  0  0  0
   14.9767   10.7065   13.7832 C   0  0  0  0  0  0  0  0  0  0  0  0
   15.3187    9.8381   14.8238 C   0  0  0  0  0  0  0  0  0  0  0  0
   15.4157    8.4759   14.5669 C   0  0  0  0  0  0  0  0  0  0  0  0
   15.1542    7.9902   13.2955 C   0  0  0  0  0  0  0  0  0  0  0  0
   14.8247    8.8332   12.2098 C   0  0  0  0  0  0  0  0  0  0  0  0
   14.3623    8.2192   10.9418 C   0  0  2  0  0  0  0  0  0  0  0  0
   15.2141    7.2295   10.2657 C   0  0  0  0  0  0  0  0  0  0  0  0
   14.7819    8.4632    9.5102 C   0  0  0  0  0  0  0  0  0  0  0  0
   15.8668    9.3599    9.0300 C   0  0  0  0  0  0  0  0  0  0  0  0
   13.6133    8.3998    8.5948 C   0  0  0  0  0  0  0  0  0  0  0  0
   14.7609   10.2139   12.4955 C   0  0  0  0  0  0  0  0  0  0  0  0
  1  2  1  0
  2  3  1  0
  3  4  1  0
  3  5  2  0
  5  6  1  0
  6  7  2  0
  7  8  1  0
  8  9  2  0
  9 10  1  0
 11 10  1  1
 11 12  1  0
 12 13  1  0
 13 14  1  0
 13 15  1  0
 10 16  2  0
 16  2  1  0
 16  6  1  0
 13 11  1  0
M  END
>  <ref_pdb>  (224) 
c0300a

>  <inchikey>  (224) 
TVJYIAPIDJCYEW-VIFPVBQESA-N

>  <original ID>  (224) 
TVJYIAPIDJCYEW-VIFPVBQESA-N

>  <generation_date>  (224) 
None

>  <alias>  (224) 
None

>  <tags>  (224) 
[]

>  <ref_mols>  (224) 
c0894a,c1134a

>  <ref_url>  (224) 
None

>  <submitter_name>  (224) 
None

>  <exports>  (224) 
nan

>  <original SMILES>  (224) 
Cn1c(N)nc2cccc([C@@H]3CC3(C)C)c21

>  <method>  (224) 
None

>  <submitter_email>  (224) 
None

>  <HIPPO ID>  (224) 
102542

$$$$
TVJYIAPIDJCYEW-SECBINFHSA-N
     RDKit          3D

 16 18  0  0  0  0  0  0  0  0999 V2000
   14.4020   11.1694   10.1755 C   0  0  0  0  0  0  0  0  0  0  0  0
   14.5081   11.1182   11.5953 N   0  0  0  0  0  0  0  0  0  0  0  0
   14.5310   12.2501   12.3686 C   0  0  0  0  0  0  0  0  0  0  0  0
   14.3661   13.4835   11.8996 N   0  0  0  0  0  0  0  0  0  0  0  0
   14.8944   11.9824   13.5855 N   0  0  0  0  0  0  0  0  0  0  0  0
   15.0517   10.6310   13.6226 C   0  0  0  0  0  0  0  0  0  0  0  0
   15.4788    9.8679   14.7118 C   0  0  0  0  0  0  0  0  0  0  0  0
   15.5708    8.4929   14.5735 C   0  0  0  0  0  0  0  0  0  0  0  0
   15.1581    7.8950   13.3946 C   0  0  0  0  0  0  0  0  0  0  0  0
   14.6661    8.6213   12.2788 C   0  0  0  0  0  0  0  0  0  0  0  0
   13.9444    7.8070   11.2451 C   0  0  1  0  0  0  0  0  0  0  0  0
   13.5012    7.7663    9.8046 C   0  0  0  0  0  0  0  0  0  0  0  0
   14.8436    7.3255   10.1643 C   0  0  0  0  0  0  0  0  0  0  0  0
   15.8198    8.2857    9.5954 C   0  0  0  0  0  0  0  0  0  0  0  0
   15.1352    5.8702   10.4069 C   0  0  0  0  0  0  0  0  0  0  0  0
   14.7289   10.0285   12.4015 C   0  0  0  0  0  0  0  0  0  0  0  0
  1  2  1  0
  2  3  1  0
  3  4  1  0
  3  5  2  0
  5  6  1  0
  6  7  2  0
  7  8  1  0
  8  9  2  0
  9 10  1  0
 11 10  1  6
 11 12  1  0
 12 13  1  0
 13 14  1  0
 13 15  1  0
 10 16  2  0
 16  2  1  0
 16  6  1  0
 13 11  1  0
M  END
>  <ref_pdb>  (225) 
c0300a

>  <inchikey>  (225) 
TVJYIAPIDJCYEW-SECBINFHSA-N

>  <original ID>  (225) 
TVJYIAPIDJCYEW-SECBINFHSA-N

>  <generation_date>  (225) 
None

>  <alias>  (225) 
None

>  <tags>  (225) 
[]

>  <ref_mols>  (225) 
c0894a,c1134a

>  <ref_url>  (225) 
None

>  <submitter_name>  (225) 
None

>  <exports>  (225) 
nan

>  <original SMILES>  (225) 
Cn1c(N)nc2cccc([C@H]3CC3(C)C)c21

>  <method>  (225) 
None

>  <submitter_email>  (225) 
None

>  <HIPPO ID>  (225) 
102543

$$$$
FWDBUVWOVNEZHG-MRVPVSSYSA-N
     RDKit          3D

 16 18  0  0  0  0  0  0  0  0999 V2000
   15.0244   10.0843    9.3651 C   0  0  0  0  0  0  0  0  0  0  0  0
   14.7514   10.4367   10.7300 N   0  0  0  0  0  0  0  0  0  0  0  0
   14.5256   11.7057   11.1960 C   0  0  0  0  0  0  0  0  0  0  0  0
   14.0021   12.6590   10.4185 N   0  0  0  0  0  0  0  0  0  0  0  0
   14.8153   11.8081   12.4589 N   0  0  0  0  0  0  0  0  0  0  0  0
   14.9740   10.5148   12.8754 C   0  0  0  0  0  0  0  0  0  0  0  0
   15.2245   10.0643   14.1723 C   0  0  0  0  0  0  0  0  0  0  0  0
   15.2853    8.6961   14.3960 C   0  0  0  0  0  0  0  0  0  0  0  0
   15.0269    7.7999   13.3626 C   0  0  0  0  0  0  0  0  0  0  0  0
   14.7471    8.1975   12.0308 C   0  0  0  0  0  0  0  0  0  0  0  0
   14.1571    7.1268   11.1418 C   0  0  2  0  0  0  0  0  0  0  0  0
   14.8920    5.7960   11.1054 C   0  0  0  0  0  0  0  0  0  0  0  0
   14.2571    5.0722    9.9327 C   0  0  0  0  0  0  0  0  0  0  0  0
   13.4528    6.0288    9.2461 O   0  0  0  0  0  0  0  0  0  0  0  0
   13.8908    7.3228    9.6768 C   0  0  0  0  0  0  0  0  0  0  0  0
   14.8227    9.5993   11.8216 C   0  0  0  0  0  0  0  0  0  0  0  0
  1  2  1  0
  2  3  1  0
  3  4  1  0
  3  5  2  0
  5  6  1  0
  6  7  2  0
  7  8  1  0
  8  9  2  0
  9 10  1  0
 11 10  1  6
 11 12  1  0
 12 13  1  0
 13 14  1  0
 14 15  1  0
 10 16  2  0
 16  2  1  0
 16  6  1  0
 15 11  1  0
M  END
>  <ref_pdb>  (226) 
c0300a

>  <inchikey>  (226) 
FWDBUVWOVNEZHG-MRVPVSSYSA-N

>  <original ID>  (226) 
FWDBUVWOVNEZHG-MRVPVSSYSA-N

>  <generation_date>  (226) 
None

>  <alias>  (226) 
None

>  <tags>  (226) 
[]

>  <ref_mols>  (226) 
c0894a,c1134a

>  <ref_url>  (226) 
None

>  <submitter_name>  (226) 
None

>  <exports>  (226) 
nan

>  <original SMILES>  (226) 
Cn1c(N)nc2cccc([C@@H]3CCOC3)c21

>  <method>  (226) 
None

>  <submitter_email>  (226) 
None

>  <HIPPO ID>  (226) 
102566

$$$$
FWDBUVWOVNEZHG-QMMMGPOBSA-N
     RDKit          3D

 16 18  0  0  0  0  0  0  0  0999 V2000
   13.7430   12.3438   10.6992 C   0  0  0  0  0  0  0  0  0  0  0  0
   14.3400   11.8287   11.8745 N   0  0  0  0  0  0  0  0  0  0  0  0
   14.6433   12.6130   12.9380 C   0  0  0  0  0  0  0  0  0  0  0  0
   14.7004   13.9456   12.8163 N   0  0  0  0  0  0  0  0  0  0  0  0
   14.9463   11.8820   13.9729 N   0  0  0  0  0  0  0  0  0  0  0  0
   14.9279   10.5851   13.5181 C   0  0  0  0  0  0  0  0  0  0  0  0
   15.1546    9.3990   14.2203 C   0  0  0  0  0  0  0  0  0  0  0  0
   15.0865    8.1902   13.5269 C   0  0  0  0  0  0  0  0  0  0  0  0
   14.8205    8.1661   12.1536 C   0  0  0  0  0  0  0  0  0  0  0  0
   14.6066    9.3458   11.3916 C   0  0  0  0  0  0  0  0  0  0  0  0
   14.2288    9.3359    9.9084 C   0  0  1  0  0  0  0  0  0  0  0  0
   15.2396   10.1069    9.1101 C   0  0  0  0  0  0  0  0  0  0  0  0
   16.2651    9.0782    8.9175 C   0  0  0  0  0  0  0  0  0  0  0  0
   15.6518    7.8391    9.2306 O   0  0  0  0  0  0  0  0  0  0  0  0
   14.2617    7.9977    9.2738 C   0  0  0  0  0  0  0  0  0  0  0  0
   14.6493   10.5314   12.1573 C   0  0  0  0  0  0  0  0  0  0  0  0
  1  2  1  0
  2  3  1  0
  3  4  1  0
  3  5  2  0
  5  6  1  0
  6  7  2  0
  7  8  1  0
  8  9  2  0
  9 10  1  0
 11 10  1  1
 11 12  1  0
 12 13  1  0
 13 14  1  0
 14 15  1  0
 10 16  2  0
 16  2  1  0
 16  6  1  0
 15 11  1  0
M  END
>  <ref_pdb>  (227) 
c0300a

>  <inchikey>  (227) 
FWDBUVWOVNEZHG-QMMMGPOBSA-N

>  <original ID>  (227) 
FWDBUVWOVNEZHG-QMMMGPOBSA-N

>  <generation_date>  (227) 
None

>  <alias>  (227) 
None

>  <tags>  (227) 
[]

>  <ref_mols>  (227) 
c0894a,c1134a

>  <ref_url>  (227) 
None

>  <submitter_name>  (227) 
None

>  <exports>  (227) 
nan

>  <original SMILES>  (227) 
Cn1c(N)nc2cccc([C@H]3CCOC3)c21

>  <method>  (227) 
None

>  <submitter_email>  (227) 
None

>  <HIPPO ID>  (227) 
102567

$$$$
JHSGYCSLMCXIBE-UHFFFAOYSA-N
     RDKit          3D

 17 19  0  0  0  0  0  0  0  0999 V2000
   14.5229    9.6898    8.9710 C   0  0  0  0  0  0  0  0  0  0  0  0
   14.7129   10.1156   10.3268 N   0  0  0  0  0  0  0  0  0  0  0  0
   14.6223   11.3748   10.8349 C   0  0  0  0  0  0  0  0  0  0  0  0
   14.2705   12.4247   10.1343 O   0  0  0  0  0  0  0  0  0  0  0  0
   14.8434   11.4182   12.1183 N   0  0  0  0  0  0  0  0  0  0  0  0
   14.8991   10.0898   12.5127 C   0  0  0  0  0  0  0  0  0  0  0  0
   15.0211    9.5074   13.8021 C   0  0  0  0  0  0  0  0  0  0  0  0
   15.2330   10.3763   15.0694 C   0  0  0  0  0  0  0  0  0  0  0  0
   15.1036   11.8948   14.8853 C   0  0  0  0  0  0  0  0  0  0  0  0
   15.1737   12.8111   16.1044 C   0  0  0  0  0  0  0  0  0  0  0  0
   13.8886   13.0420   16.6665 O   0  0  0  0  0  0  0  0  0  0  0  0
   16.3449    9.8724   15.9897 C   0  0  0  0  0  0  0  0  0  0  0  0
   14.9175    9.7788   16.4355 C   0  0  0  0  0  0  0  0  0  0  0  0
   14.9937    8.0845   13.8263 C   0  0  0  0  0  0  0  0  0  0  0  0
   14.8651    7.2882   12.6861 C   0  0  0  0  0  0  0  0  0  0  0  0
   14.7665    7.8629   11.4321 C   0  0  0  0  0  0  0  0  0  0  0  0
   14.8007    9.2586   11.3883 C   0  0  0  0  0  0  0  0  0  0  0  0
  1  2  1  0
  2  3  1  0
  3  4  1  0
  3  5  2  0
  5  6  1  0
  6  7  2  0
  7  8  1  0
  8  9  1  0
  9 10  1  0
 10 11  1  0
  8 12  1  0
 12 13  1  0
  7 14  1  0
 14 15  2  0
 15 16  1  0
 16 17  2  0
 17  2  1  0
 17  6  1  0
 13  8  1  0
M  END
>  <ref_pdb>  (228) 
c0300a

>  <inchikey>  (228) 
JHSGYCSLMCXIBE-UHFFFAOYSA-N

>  <original ID>  (228) 
JHSGYCSLMCXIBE-UHFFFAOYSA-N

>  <generation_date>  (228) 
None

>  <alias>  (228) 
None

>  <tags>  (228) 
[]

>  <ref_mols>  (228) 
c0894a,c1134a

>  <ref_url>  (228) 
None

>  <submitter_name>  (228) 
None

>  <exports>  (228) 
nan

>  <original SMILES>  (228) 
Cn1c(O)nc2c(C3(CCO)CC3)cccc21

>  <method>  (228) 
None

>  <submitter_email>  (228) 
None

>  <HIPPO ID>  (228) 
103230

$$$$
SPTWMNWAOBYAAT-AWEZNQCLSA-N
     RDKit          3D

 17 19  0  0  0  0  0  0  0  0999 V2000
   14.4183    9.6592    8.9157 C   0  0  0  0  0  0  0  0  0  0  0  0
   14.6869   10.0603   10.2631 N   0  0  0  0  0  0  0  0  0  0  0  0
   14.6718   11.3150   10.7878 C   0  0  0  0  0  0  0  0  0  0  0  0
   14.2876   12.3842   10.1333 O   0  0  0  0  0  0  0  0  0  0  0  0
   15.0147   11.3343   12.0445 N   0  0  0  0  0  0  0  0  0  0  0  0
   15.0178   10.0046   12.4245 C   0  0  0  0  0  0  0  0  0  0  0  0
   15.2263    9.3913   13.6792 C   0  0  0  0  0  0  0  0  0  0  0  0
   15.6520   10.1608   14.9266 C   0  0  2  0  0  0  0  0  0  0  0  0
   17.0169    9.7531   15.4571 C   0  0  0  0  0  0  0  0  0  0  0  0
   14.5412   10.2192   15.9461 C   0  0  0  0  0  0  0  0  0  0  0  0
   15.0942   11.5178   15.4152 C   0  0  0  0  0  0  0  0  0  0  0  0
   14.2520   12.4007   14.5323 C   0  0  0  0  0  0  0  0  0  0  0  0
   15.9076   12.3530   16.3839 C   0  0  0  0  0  0  0  0  0  0  0  0
   15.0935    7.9760   13.7169 C   0  0  0  0  0  0  0  0  0  0  0  0
   14.8427    7.1998   12.5869 C   0  0  0  0  0  0  0  0  0  0  0  0
   14.7081    7.7937   11.3439 C   0  0  0  0  0  0  0  0  0  0  0  0
   14.7981    9.1880   11.3073 C   0  0  0  0  0  0  0  0  0  0  0  0
  1  2  1  0
  2  3  1  0
  3  4  1  0
  3  5  2  0
  5  6  1  0
  6  7  2  0
  7  8  1  0
  8  9  1  1
  8 10  1  0
 10 11  1  0
 11 12  1  0
 11 13  1  0
  7 14  1  0
 14 15  2  0
 15 16  1  0
 16 17  2  0
 17  2  1  0
 17  6  1  0
 11  8  1  0
M  END
>  <ref_pdb>  (229) 
c0300a

>  <inchikey>  (229) 
SPTWMNWAOBYAAT-AWEZNQCLSA-N

>  <original ID>  (229) 
SPTWMNWAOBYAAT-AWEZNQCLSA-N

>  <generation_date>  (229) 
None

>  <alias>  (229) 
None

>  <tags>  (229) 
[]

>  <ref_mols>  (229) 
c0894a,c1134a

>  <ref_url>  (229) 
None

>  <submitter_name>  (229) 
None

>  <exports>  (229) 
nan

>  <original SMILES>  (229) 
Cn1c(O)nc2c([C@]3(C)CC3(C)C)cccc21

>  <method>  (229) 
None

>  <submitter_email>  (229) 
None

>  <HIPPO ID>  (229) 
103237

$$$$
SPTWMNWAOBYAAT-CQSZACIVSA-N
     RDKit          3D

 17 19  0  0  0  0  0  0  0  0999 V2000
   14.5178    9.6999    8.9299 C   0  0  0  0  0  0  0  0  0  0  0  0
   14.7278   10.0877   10.2926 N   0  0  0  0  0  0  0  0  0  0  0  0
   14.6557   11.3318   10.8387 C   0  0  0  0  0  0  0  0  0  0  0  0
   14.2982   12.4045   10.1741 O   0  0  0  0  0  0  0  0  0  0  0  0
   14.8969   11.3324   12.1206 N   0  0  0  0  0  0  0  0  0  0  0  0
   14.9210    9.9894   12.4734 C   0  0  0  0  0  0  0  0  0  0  0  0
   15.0100    9.3618   13.7452 C   0  0  0  0  0  0  0  0  0  0  0  0
   15.2175   10.2002   15.0205 C   0  0  1  0  0  0  0  0  0  0  0  0
   14.7239   11.6393   14.9446 C   0  0  0  0  0  0  0  0  0  0  0  0
   15.0732    9.5245   16.3810 C   0  0  0  0  0  0  0  0  0  0  0  0
   16.4510    9.9290   15.9273 C   0  0  0  0  0  0  0  0  0  0  0  0
   17.1031   11.0811   16.6590 C   0  0  0  0  0  0  0  0  0  0  0  0
   17.4478    8.8301   15.6394 C   0  0  0  0  0  0  0  0  0  0  0  0
   14.8775    7.9465   13.7260 C   0  0  0  0  0  0  0  0  0  0  0  0
   14.7555    7.1892   12.5594 C   0  0  0  0  0  0  0  0  0  0  0  0
   14.7287    7.8024   11.3219 C   0  0  0  0  0  0  0  0  0  0  0  0
   14.8014    9.1963   11.3247 C   0  0  0  0  0  0  0  0  0  0  0  0
  1  2  1  0
  2  3  1  0
  3  4  1  0
  3  5  2  0
  5  6  1  0
  6  7  2  0
  7  8  1  0
  8  9  1  1
  8 10  1  0
 10 11  1  0
 11 12  1  0
 11 13  1  0
  7 14  1  0
 14 15  2  0
 15 16  1  0
 16 17  2  0
 17  2  1  0
 17  6  1  0
 11  8  1  0
M  END
>  <ref_pdb>  (230) 
c0300a

>  <inchikey>  (230) 
SPTWMNWAOBYAAT-CQSZACIVSA-N

>  <original ID>  (230) 
SPTWMNWAOBYAAT-CQSZACIVSA-N

>  <generation_date>  (230) 
None

>  <alias>  (230) 
None

>  <tags>  (230) 
[]

>  <ref_mols>  (230) 
c0894a,c1134a

>  <ref_url>  (230) 
None

>  <submitter_name>  (230) 
None

>  <exports>  (230) 
nan

>  <original SMILES>  (230) 
Cn1c(O)nc2c([C@@]3(C)CC3(C)C)cccc21

>  <method>  (230) 
None

>  <submitter_email>  (230) 
None

>  <HIPPO ID>  (230) 
103238

$$$$
AVZSPSRBNJYHEK-UHFFFAOYSA-N
     RDKit          3D

 17 19  0  0  0  0  0  0  0  0999 V2000
   14.3564   11.4874   10.1847 C   0  0  0  0  0  0  0  0  0  0  0  0
   14.5045   11.2638   11.5678 N   0  0  0  0  0  0  0  0  0  0  0  0
   14.5085   12.2838   12.4794 C   0  0  0  0  0  0  0  0  0  0  0  0
   14.4452   13.5814   12.1620 N   0  0  0  0  0  0  0  0  0  0  0  0
   14.7021   11.8246   13.6746 N   0  0  0  0  0  0  0  0  0  0  0  0
   14.8114   10.4725   13.5215 C   0  0  0  0  0  0  0  0  0  0  0  0
   15.0072    9.5622   14.5534 C   0  0  0  0  0  0  0  0  0  0  0  0
   15.0519    8.2257   14.2338 C   0  0  0  0  0  0  0  0  0  0  0  0
   14.9083    7.8175   12.9087 C   0  0  0  0  0  0  0  0  0  0  0  0
   14.7263    8.6718   11.7685 C   0  0  0  0  0  0  0  0  0  0  0  0
   14.6753    8.0252   10.3200 C   0  0  0  0  0  0  0  0  0  0  0  0
   13.3988    8.0996    9.4685 C   0  0  0  0  0  0  0  0  0  0  0  0
   15.7316    8.7191    9.4555 C   0  0  0  0  0  0  0  0  0  0  0  0
   15.0230    6.5098   10.4976 C   0  0  0  0  0  0  0  0  0  0  0  0
   14.0322    5.4886   11.0559 C   0  0  0  0  0  0  0  0  0  0  0  0
   14.4732    5.3647    9.6505 C   0  0  0  0  0  0  0  0  0  0  0  0
   14.6985   10.0504   12.1847 C   0  0  0  0  0  0  0  0  0  0  0  0
  1  2  1  0
  2  3  1  0
  3  4  1  0
  3  5  2  0
  5  6  1  0
  6  7  2  0
  7  8  1  0
  8  9  2  0
  9 10  1  0
 10 11  1  0
 11 12  1  0
 11 13  1  0
 11 14  1  0
 14 15  1  0
 15 16  1  0
 10 17  2  0
 17  2  1  0
 17  6  1  0
 16 14  1  0
M  END
>  <ref_pdb>  (231) 
c0300a

>  <inchikey>  (231) 
AVZSPSRBNJYHEK-UHFFFAOYSA-N

>  <original ID>  (231) 
AVZSPSRBNJYHEK-UHFFFAOYSA-N

>  <generation_date>  (231) 
None

>  <alias>  (231) 
None

>  <tags>  (231) 
[]

>  <ref_mols>  (231) 
c0894a,c1134a

>  <ref_url>  (231) 
None

>  <submitter_name>  (231) 
None

>  <exports>  (231) 
nan

>  <original SMILES>  (231) 
Cn1c(N)nc2cccc(C(C)(C)C3CC3)c21

>  <method>  (231) 
None

>  <submitter_email>  (231) 
None

>  <HIPPO ID>  (231) 
103432

$$$$
PJOXGRXNBSXXOG-UHFFFAOYSA-N
     RDKit          3D

 17 19  0  0  0  0  0  0  0  0999 V2000
   13.7339   12.0827   10.6323 C   0  0  0  0  0  0  0  0  0  0  0  0
   14.3853   11.6358   11.8135 N   0  0  0  0  0  0  0  0  0  0  0  0
   14.5958   12.4702   12.8654 C   0  0  0  0  0  0  0  0  0  0  0  0
   14.6127   13.7994   12.6998 N   0  0  0  0  0  0  0  0  0  0  0  0
   14.8316   11.7880   13.9502 N   0  0  0  0  0  0  0  0  0  0  0  0
   14.8673   10.4735   13.5512 C   0  0  0  0  0  0  0  0  0  0  0  0
   15.0457    9.3177   14.3194 C   0  0  0  0  0  0  0  0  0  0  0  0
   15.0559    8.0734   13.6813 C   0  0  0  0  0  0  0  0  0  0  0  0
   14.9479    7.9847   12.2937 C   0  0  0  0  0  0  0  0  0  0  0  0
   14.8224    9.1327   11.4803 C   0  0  0  0  0  0  0  0  0  0  0  0
   14.8300    9.0933    9.9770 C   0  0  0  0  0  0  0  0  0  0  0  0
   13.8392    8.1557    9.3589 C   0  0  0  0  0  0  0  0  0  0  0  0
   13.1625    8.8180    8.2061 C   0  0  0  0  0  0  0  0  0  0  0  0
   12.9145    7.8972    7.1954 O   0  0  0  0  0  0  0  0  0  0  0  0
   15.4645   10.2830    9.2197 C   0  0  0  0  0  0  0  0  0  0  0  0
   16.1357    9.0019    9.2611 C   0  0  0  0  0  0  0  0  0  0  0  0
   14.7176   10.3592   12.1728 C   0  0  0  0  0  0  0  0  0  0  0  0
  1  2  1  0
  2  3  1  0
  3  4  1  0
  3  5  2  0
  5  6  1  0
  6  7  2  0
  7  8  1  0
  8  9  2  0
  9 10  1  0
 10 11  1  0
 11 12  1  0
 12 13  1  0
 13 14  1  0
 11 15  1  0
 15 16  1  0
 10 17  2  0
 17  2  1  0
 17  6  1  0
 16 11  1  0
M  END
>  <ref_pdb>  (232) 
c0300a

>  <inchikey>  (232) 
PJOXGRXNBSXXOG-UHFFFAOYSA-N

>  <original ID>  (232) 
PJOXGRXNBSXXOG-UHFFFAOYSA-N

>  <generation_date>  (232) 
None

>  <alias>  (232) 
None

>  <tags>  (232) 
[]

>  <ref_mols>  (232) 
c0894a,c1134a

>  <ref_url>  (232) 
None

>  <submitter_name>  (232) 
None

>  <exports>  (232) 
['/opt/xchem-fragalysis-2/maxwin/CHIKV_HIPPO/hippo_prod/CHIKV_prod11_recipes/Recipe_1G8PPKY_poses.sdf']

>  <original SMILES>  (232) 
Cn1c(N)nc2cccc(C3(CCO)CC3)c21

>  <method>  (232) 
None

>  <submitter_email>  (232) 
None

>  <HIPPO ID>  (232) 
103442

$$$$
KMHOHNXAANOZND-AWEZNQCLSA-N
     RDKit          3D

 17 19  0  0  0  0  0  0  0  0999 V2000
   14.3217   11.5146   11.1310 C   0  0  0  0  0  0  0  0  0  0  0  0
   14.5352   11.1335   12.5007 N   0  0  0  0  0  0  0  0  0  0  0  0
   14.6510   12.1223   13.4579 C   0  0  0  0  0  0  0  0  0  0  0  0
   14.5089   13.4305   13.1829 N   0  0  0  0  0  0  0  0  0  0  0  0
   15.0164   11.6418   14.6041 N   0  0  0  0  0  0  0  0  0  0  0  0
   15.1978   10.3076   14.3892 C   0  0  0  0  0  0  0  0  0  0  0  0
   15.6851    9.3990   15.3377 C   0  0  0  0  0  0  0  0  0  0  0  0
   15.8254    8.0686   14.9950 C   0  0  0  0  0  0  0  0  0  0  0  0
   15.4289    7.6491   13.7355 C   0  0  0  0  0  0  0  0  0  0  0  0
   14.8917    8.5093   12.7271 C   0  0  0  0  0  0  0  0  0  0  0  0
   14.3088    7.8084   11.4830 C   0  0  2  0  0  0  0  0  0  0  0  0
   13.1779    6.8209   11.8728 C   0  0  0  0  0  0  0  0  0  0  0  0
   15.2599    7.0159   10.6423 C   0  0  0  0  0  0  0  0  0  0  0  0
   14.6187    8.1973    9.9872 C   0  0  0  0  0  0  0  0  0  0  0  0
   13.5143    8.0195    8.9971 C   0  0  0  0  0  0  0  0  0  0  0  0
   15.5988    9.2125    9.4792 C   0  0  0  0  0  0  0  0  0  0  0  0
   14.8431    9.9034   13.0821 C   0  0  0  0  0  0  0  0  0  0  0  0
  1  2  1  0
  2  3  1  0
  3  4  1  0
  3  5  2  0
  5  6  1  0
  6  7  2  0
  7  8  1  0
  8  9  2  0
  9 10  1  0
 10 11  1  0
 11 12  1  1
 11 13  1  0
 13 14  1  0
 14 15  1  0
 14 16  1  0
 10 17  2  0
 17  2  1  0
 17  6  1  0
 14 11  1  0
M  END
>  <ref_pdb>  (233) 
c0300a

>  <inchikey>  (233) 
KMHOHNXAANOZND-AWEZNQCLSA-N

>  <original ID>  (233) 
KMHOHNXAANOZND-AWEZNQCLSA-N

>  <generation_date>  (233) 
None

>  <alias>  (233) 
None

>  <tags>  (233) 
[]

>  <ref_mols>  (233) 
c0894a,c1134a

>  <ref_url>  (233) 
None

>  <submitter_name>  (233) 
None

>  <exports>  (233) 
nan

>  <original SMILES>  (233) 
Cn1c(N)nc2cccc([C@]3(C)CC3(C)C)c21

>  <method>  (233) 
None

>  <submitter_email>  (233) 
None

>  <HIPPO ID>  (233) 
103449

$$$$
KMHOHNXAANOZND-CQSZACIVSA-N
     RDKit          3D

 17 19  0  0  0  0  0  0  0  0999 V2000
   14.1815   11.9466   10.5027 C   0  0  0  0  0  0  0  0  0  0  0  0
   14.5228   11.5242   11.8036 N   0  0  0  0  0  0  0  0  0  0  0  0
   14.5964   12.4083   12.8366 C   0  0  0  0  0  0  0  0  0  0  0  0
   14.5524   13.7328   12.6346 N   0  0  0  0  0  0  0  0  0  0  0  0
   14.8129   11.7872   13.9566 N   0  0  0  0  0  0  0  0  0  0  0  0
   14.8824   10.4601   13.6200 C   0  0  0  0  0  0  0  0  0  0  0  0
   15.0928    9.3755   14.4740 C   0  0  0  0  0  0  0  0  0  0  0  0
   15.1431    8.0989   13.9319 C   0  0  0  0  0  0  0  0  0  0  0  0
   14.9769    7.9169   12.5623 C   0  0  0  0  0  0  0  0  0  0  0  0
   14.7355    8.9821   11.6425 C   0  0  0  0  0  0  0  0  0  0  0  0
   14.5991    8.7275   10.1309 C   0  0  1  0  0  0  0  0  0  0  0  0
   15.8774    9.0365    9.4063 C   0  0  0  0  0  0  0  0  0  0  0  0
   13.7857    7.4347   10.0521 C   0  0  0  0  0  0  0  0  0  0  0  0
   13.3900    8.5515    9.1506 C   0  0  0  0  0  0  0  0  0  0  0  0
   12.3641    9.5747    9.0566 C   0  0  0  0  0  0  0  0  0  0  0  0
   13.4028    8.0079    7.8135 C   0  0  0  0  0  0  0  0  0  0  0  0
   14.7249   10.2559   12.2466 C   0  0  0  0  0  0  0  0  0  0  0  0
  1  2  1  0
  2  3  1  0
  3  4  1  0
  3  5  2  0
  5  6  1  0
  6  7  2  0
  7  8  1  0
  8  9  2  0
  9 10  1  0
 10 11  1  0
 11 12  1  6
 11 13  1  0
 13 14  1  0
 14 15  1  0
 14 16  1  0
 10 17  2  0
 17  2  1  0
 17  6  1  0
 14 11  1  0
M  END
>  <ref_pdb>  (234) 
c0300a

>  <inchikey>  (234) 
KMHOHNXAANOZND-CQSZACIVSA-N

>  <original ID>  (234) 
KMHOHNXAANOZND-CQSZACIVSA-N

>  <generation_date>  (234) 
None

>  <alias>  (234) 
None

>  <tags>  (234) 
[]

>  <ref_mols>  (234) 
c0894a,c1134a

>  <ref_url>  (234) 
None

>  <submitter_name>  (234) 
None

>  <exports>  (234) 
nan

>  <original SMILES>  (234) 
Cn1c(N)nc2cccc([C@@]3(C)CC3(C)C)c21

>  <method>  (234) 
None

>  <submitter_email>  (234) 
None

>  <HIPPO ID>  (234) 
103450

$$$$
GQFFNIPUVZGZPS-UHFFFAOYSA-N
     RDKit          3D

 17 19  0  0  0  0  0  0  0  0999 V2000
   14.5271    9.8223    8.9405 C   0  0  0  0  0  0  0  0  0  0  0  0
   14.7073   10.1742   10.3171 N   0  0  0  0  0  0  0  0  0  0  0  0
   14.6053   11.3881   10.9250 C   0  0  0  0  0  0  0  0  0  0  0  0
   14.2455   12.4913   10.3112 O   0  0  0  0  0  0  0  0  0  0  0  0
   14.8252   11.3230   12.2119 N   0  0  0  0  0  0  0  0  0  0  0  0
   14.9368    9.9670   12.4839 C   0  0  0  0  0  0  0  0  0  0  0  0
   15.1199    9.2700   13.7037 C   0  0  0  0  0  0  0  0  0  0  0  0
   15.2372    9.8970   15.1037 C   0  0  0  0  0  0  0  0  0  0  0  0
   14.9967   11.4244   15.1132 C   0  0  0  0  0  0  0  0  0  0  0  0
   14.1541    9.2425   15.9827 C   0  0  0  0  0  0  0  0  0  0  0  0
   16.6500    9.6648   15.6363 C   0  0  0  0  0  0  0  0  0  0  0  0
   16.9718    9.6820   17.1139 C   0  0  0  0  0  0  0  0  0  0  0  0
   17.1063    8.4034   16.3363 C   0  0  0  0  0  0  0  0  0  0  0  0
   15.1686    7.8456   13.5960 C   0  0  0  0  0  0  0  0  0  0  0  0
   15.0042    7.1494   12.4011 C   0  0  0  0  0  0  0  0  0  0  0  0
   14.8171    7.8352   11.2185 C   0  0  0  0  0  0  0  0  0  0  0  0
   14.8243    9.2311   11.2994 C   0  0  0  0  0  0  0  0  0  0  0  0
  1  2  1  0
  2  3  1  0
  3  4  1  0
  3  5  2  0
  5  6  1  0
  6  7  2  0
  7  8  1  0
  8  9  1  0
  8 10  1  0
  8 11  1  0
 11 12  1  0
 12 13  1  0
  7 14  1  0
 14 15  2  0
 15 16  1  0
 16 17  2  0
 17  2  1  0
 17  6  1  0
 13 11  1  0
M  END
>  <ref_pdb>  (235) 
c0300a

>  <inchikey>  (235) 
GQFFNIPUVZGZPS-UHFFFAOYSA-N

>  <original ID>  (235) 
GQFFNIPUVZGZPS-UHFFFAOYSA-N

>  <generation_date>  (235) 
None

>  <alias>  (235) 
None

>  <tags>  (235) 
[]

>  <ref_mols>  (235) 
c0894a,c1134a

>  <ref_url>  (235) 
None

>  <submitter_name>  (235) 
None

>  <exports>  (235) 
nan

>  <original SMILES>  (235) 
Cn1c(O)nc2c(C(C)(C)C3CC3)cccc21

>  <method>  (235) 
None

>  <submitter_email>  (235) 
None

>  <HIPPO ID>  (235) 
103460

$$$$
JXRCCCJCUJURBQ-UHFFFAOYSA-N
     RDKit          3D

 16 17  0  0  0  0  0  0  0  0999 V2000
   15.8571   10.8075   13.4262 C   0  0  0  0  0  0  0  0  0  0  0  0
   15.6572    9.8467   12.2935 C   0  0  0  0  0  0  0  0  0  0  0  0
   14.9492    8.6565   12.5395 C   0  0  0  0  0  0  0  0  0  0  0  0
   14.5724    7.8137   11.4959 C   0  0  0  0  0  0  0  0  0  0  0  0
   14.8933    8.1550   10.1941 C   0  0  0  0  0  0  0  0  0  0  0  0
   15.6655    9.2848    9.9519 C   0  0  0  0  0  0  0  0  0  0  0  0
   15.9555    9.5167    8.6430 O   0  0  0  0  0  0  0  0  0  0  0  0
   16.0790   10.1442   10.9862 C   0  0  0  0  0  0  0  0  0  0  0  0
   16.7840   11.3403   10.6723 N   0  0  0  0  0  0  0  0  0  0  0  0
   18.0970   11.6969   11.0792 C   0  0  0  0  0  0  0  0  0  0  0  0
   19.1989   11.0509   10.5177 C   0  0  0  0  0  0  0  0  0  0  0  0
   20.5050   11.4291   10.8253 C   0  0  0  0  0  0  0  0  0  0  0  0
   20.7143   12.4684   11.7131 C   0  0  0  0  0  0  0  0  0  0  0  0
   22.0012   12.7449   12.0545 O   0  0  0  0  0  0  0  0  0  0  0  0
   19.6374   13.1708   12.2497 C   0  0  0  0  0  0  0  0  0  0  0  0
   18.3264   12.7852   11.9278 C   0  0  0  0  0  0  0  0  0  0  0  0
  1  2  1  0
  2  3  2  0
  3  4  1  0
  4  5  2  0
  5  6  1  0
  6  7  1  0
  6  8  2  0
  8  9  1  0
  9 10  1  0
 10 11  2  0
 11 12  1  0
 12 13  2  0
 13 14  1  0
 13 15  1  0
 15 16  2  0
  8  2  1  0
 16 10  1  0
M  END
>  <ref_pdb>  (236) 
c0270a

>  <inchikey>  (236) 
JXRCCCJCUJURBQ-UHFFFAOYSA-N

>  <original ID>  (236) 
JXRCCCJCUJURBQ-UHFFFAOYSA-N

>  <generation_date>  (236) 
None

>  <alias>  (236) 
None

>  <tags>  (236) 
[]

>  <ref_mols>  (236) 
c0692a,c1116a

>  <ref_url>  (236) 
None

>  <submitter_name>  (236) 
None

>  <exports>  (236) 
['/opt/xchem-fragalysis-2/maxwin/CHIKV_HIPPO/hippo_prod/CHIKV_prod11_recipes/Recipe_1G8PPKY_poses.sdf', '/opt/xchem-fragalysis-2/maxwin/CHIKV_HIPPO/web/web_resources/pose_sdfs/modal_c3625_poses.sdf', '/opt/xchem-fragalysis-2/maxwin/CHIKV_HIPPO/hippo_prod/CHIKV_prod11_recipes/Recipe_1GERJCJ_poses.sdf']

>  <original SMILES>  (236) 
Cc1cccc(O)c1Nc1ccc(O)cc1

>  <method>  (236) 
None

>  <submitter_email>  (236) 
None

>  <HIPPO ID>  (236) 
104911

$$$$
CGFWGZMMQCLVQG-UHFFFAOYSA-N
     RDKit          3D

 20 21  0  0  0  0  0  0  0  0999 V2000
   15.1483   11.2862   14.0549 C   0  0  0  0  0  0  0  0  0  0  0  0
   16.2076   10.4489   13.5919 O   0  0  0  0  0  0  0  0  0  0  0  0
   15.7584    9.6504   12.5736 C   0  0  0  0  0  0  0  0  0  0  0  0
   15.0107    8.5048   12.9028 C   0  0  0  0  0  0  0  0  0  0  0  0
   14.4914    7.6993   11.8959 C   0  0  0  0  0  0  0  0  0  0  0  0
   13.3061    6.2725   12.2486 Br  0  0  0  0  0  0  0  0  0  0  0  0
   14.7450    8.0014   10.5779 C   0  0  0  0  0  0  0  0  0  0  0  0
   15.4905    9.1430   10.2547 C   0  0  0  0  0  0  0  0  0  0  0  0
   15.5683    9.4595    8.8086 C   0  0  0  0  0  0  0  0  0  0  0  0
   14.9247   10.7014    8.6279 O   0  0  0  0  0  0  0  0  0  0  0  0
   16.0369    9.9909   11.2445 C   0  0  0  0  0  0  0  0  0  0  0  0
   16.6841   11.2154   10.8767 N   0  0  0  0  0  0  0  0  0  0  0  0
   18.0077   11.6394   11.2079 C   0  0  0  0  0  0  0  0  0  0  0  0
   19.0923   11.0434   10.5512 C   0  0  0  0  0  0  0  0  0  0  0  0
   20.4113   11.4737   10.7444 C   0  0  0  0  0  0  0  0  0  0  0  0
   20.6692   12.5401   11.5939 C   0  0  0  0  0  0  0  0  0  0  0  0
   19.6065   13.1610   12.2402 C   0  0  0  0  0  0  0  0  0  0  0  0
   19.8728   14.1805   13.0686 F   0  0  0  0  0  0  0  0  0  0  0  0
   18.2873   12.7243   12.0530 C   0  0  0  0  0  0  0  0  0  0  0  0
   17.2999   13.3652   12.6971 F   0  0  0  0  0  0  0  0  0  0  0  0
  1  2  1  0
  2  3  1  0
  3  4  2  0
  4  5  1  0
  5  6  1  0
  5  7  2  0
  7  8  1  0
  8  9  1  0
  9 10  1  0
  8 11  2  0
 11 12  1  0
 12 13  1  0
 13 14  2  0
 14 15  1  0
 15 16  2  0
 16 17  1  0
 17 18  1  0
 17 19  2  0
 19 20  1  0
 11  3  1  0
 19 13  1  0
M  END
>  <ref_pdb>  (237) 
c0270a

>  <inchikey>  (237) 
CGFWGZMMQCLVQG-UHFFFAOYSA-N

>  <original ID>  (237) 
CGFWGZMMQCLVQG-UHFFFAOYSA-N

>  <generation_date>  (237) 
None

>  <alias>  (237) 
None

>  <tags>  (237) 
[]

>  <ref_mols>  (237) 
c0692a,c1116a

>  <ref_url>  (237) 
None

>  <submitter_name>  (237) 
None

>  <exports>  (237) 
['/opt/xchem-fragalysis-2/maxwin/CHIKV_HIPPO/hippo_prod/CHIKV_prod11_recipes/Recipe_1G8PPKY_poses.sdf']

>  <original SMILES>  (237) 
COc1cc(Br)cc(CO)c1Nc1cccc(F)c1F

>  <method>  (237) 
None

>  <submitter_email>  (237) 
None

>  <HIPPO ID>  (237) 
106937

$$$$
QNQOAGDSVWREQN-UHFFFAOYSA-N
     RDKit          3D

 20 21  0  0  0  0  0  0  0  0999 V2000
   13.4517    8.7785    8.3508 C   0  0  0  0  0  0  0  0  0  0  0  0
   14.1503    7.8417    9.1466 O   0  0  0  0  0  0  0  0  0  0  0  0
   14.8024    8.4485   10.1755 C   0  0  0  0  0  0  0  0  0  0  0  0
   15.6931    9.4888    9.9341 C   0  0  0  0  0  0  0  0  0  0  0  0
   16.2460   10.2238   10.9804 C   0  0  0  0  0  0  0  0  0  0  0  0
   17.0204   11.3619   10.6455 N   0  0  0  0  0  0  0  0  0  0  0  0
   18.3163   11.7194   11.1026 C   0  0  0  0  0  0  0  0  0  0  0  0
   19.4344   11.1119   10.5232 C   0  0  0  0  0  0  0  0  0  0  0  0
   20.7277   11.5067   10.8562 C   0  0  0  0  0  0  0  0  0  0  0  0
   20.9049   12.5345   11.7682 C   0  0  0  0  0  0  0  0  0  0  0  0
   22.1514   12.8916   12.0953 F   0  0  0  0  0  0  0  0  0  0  0  0
   19.8127   13.1779   12.3469 C   0  0  0  0  0  0  0  0  0  0  0  0
   18.5237   12.7561   12.0200 C   0  0  0  0  0  0  0  0  0  0  0  0
   17.4606   13.3760   12.6137 O   0  0  0  0  0  0  0  0  0  0  0  0
   15.8617    9.8995   12.2800 C   0  0  0  0  0  0  0  0  0  0  0  0
   14.9995    8.8016   12.5488 C   0  0  0  0  0  0  0  0  0  0  0  0
   14.6116    8.5231   13.9745 C   0  0  0  0  0  0  0  0  0  0  0  0
   14.3004    9.7345   14.6515 O   0  0  0  0  0  0  0  0  0  0  0  0
   14.5413    8.0229   11.4734 C   0  0  0  0  0  0  0  0  0  0  0  0
   13.4051    6.2265   11.7023 I   0  0  0  0  0  0  0  0  0  0  0  0
  1  2  1  0
  2  3  1  0
  3  4  2  0
  4  5  1  0
  5  6  1  0
  6  7  1  0
  7  8  2  0
  8  9  1  0
  9 10  2  0
 10 11  1  0
 10 12  1  0
 12 13  2  0
 13 14  1  0
  5 15  2  0
 15 16  1  0
 16 17  1  0
 17 18  1  0
 16 19  2  0
 19 20  1  0
 19  3  1  0
 13  7  1  0
M  END
>  <ref_pdb>  (238) 
c0270a

>  <inchikey>  (238) 
QNQOAGDSVWREQN-UHFFFAOYSA-N

>  <original ID>  (238) 
QNQOAGDSVWREQN-UHFFFAOYSA-N

>  <generation_date>  (238) 
None

>  <alias>  (238) 
None

>  <tags>  (238) 
[]

>  <ref_mols>  (238) 
c0692a,c1116a

>  <ref_url>  (238) 
None

>  <submitter_name>  (238) 
None

>  <exports>  (238) 
nan

>  <original SMILES>  (238) 
COc1cc(Nc2ccc(F)cc2O)cc(CO)c1I

>  <method>  (238) 
None

>  <submitter_email>  (238) 
None

>  <HIPPO ID>  (238) 
106964

$$$$
NNAYVWQZXGCTGH-UHFFFAOYSA-N
     RDKit          3D

 20 21  0  0  0  0  0  0  0  0999 V2000
   22.4623   11.6318   10.0227 C   0  0  0  0  0  0  0  0  0  0  0  0
   21.4439   10.9702   10.7677 O   0  0  0  0  0  0  0  0  0  0  0  0
   20.4916   11.8127   11.2586 C   0  0  0  0  0  0  0  0  0  0  0  0
   19.1630   11.4724   10.9214 C   0  0  0  0  0  0  0  0  0  0  0  0
   18.0920   12.1589   11.4829 C   0  0  0  0  0  0  0  0  0  0  0  0
   16.7320   11.8393   11.2354 N   0  0  0  0  0  0  0  0  0  0  0  0
   16.1177   10.5633   11.1472 C   0  0  0  0  0  0  0  0  0  0  0  0
   15.8637    9.9477    9.9208 C   0  0  0  0  0  0  0  0  0  0  0  0
   15.1279    8.7610    9.8387 C   0  0  0  0  0  0  0  0  0  0  0  0
   14.6487    8.1581   10.9929 C   0  0  0  0  0  0  0  0  0  0  0  0
   14.8802    8.7738   12.2160 C   0  0  0  0  0  0  0  0  0  0  0  0
   14.3036    8.2761   13.3183 F   0  0  0  0  0  0  0  0  0  0  0  0
   15.6107    9.9528   12.2954 C   0  0  0  0  0  0  0  0  0  0  0  0
   15.7715   10.5552   13.4828 F   0  0  0  0  0  0  0  0  0  0  0  0
   18.3894   13.2777   12.2831 C   0  0  0  0  0  0  0  0  0  0  0  0
   19.7104   13.6200   12.6605 C   0  0  0  0  0  0  0  0  0  0  0  0
   19.9034   14.7494   13.6291 C   0  0  0  0  0  0  0  0  0  0  0  0
   20.5001   16.3345   12.6912 Br  0  0  0  0  0  0  0  0  0  0  0  0
   20.7701   12.8463   12.1701 C   0  0  0  0  0  0  0  0  0  0  0  0
   22.7437   13.1231   12.9756 I   0  0  0  0  0  0  0  0  0  0  0  0
  1  2  1  0
  2  3  1  0
  3  4  2  0
  4  5  1  0
  5  6  1  0
  6  7  1  0
  7  8  2  0
  8  9  1  0
  9 10  2  0
 10 11  1  0
 11 12  1  0
 11 13  2  0
 13 14  1  0
  5 15  2  0
 15 16  1  0
 16 17  1  0
 17 18  1  0
 16 19  2  0
 19 20  1  0
 19  3  1  0
 13  7  1  0
M  END
>  <ref_pdb>  (239) 
c0270a

>  <inchikey>  (239) 
NNAYVWQZXGCTGH-UHFFFAOYSA-N

>  <original ID>  (239) 
NNAYVWQZXGCTGH-UHFFFAOYSA-N

>  <generation_date>  (239) 
None

>  <alias>  (239) 
None

>  <tags>  (239) 
[]

>  <ref_mols>  (239) 
c0692a,c1116a

>  <ref_url>  (239) 
None

>  <submitter_name>  (239) 
None

>  <exports>  (239) 
nan

>  <original SMILES>  (239) 
COc1cc(Nc2cccc(F)c2F)cc(CBr)c1I

>  <method>  (239) 
None

>  <submitter_email>  (239) 
None

>  <HIPPO ID>  (239) 
107609

$$$$
RWYQTBGMMUPCOW-UHFFFAOYSA-N
     RDKit          3D

 20 21  0  0  0  0  0  0  0  0999 V2000
   13.5406    8.9163    8.3567 C   0  0  0  0  0  0  0  0  0  0  0  0
   14.4099    8.0443    9.0339 O   0  0  0  0  0  0  0  0  0  0  0  0
   14.9158    8.6194   10.1547 C   0  0  0  0  0  0  0  0  0  0  0  0
   15.6726    9.7950   10.0862 C   0  0  0  0  0  0  0  0  0  0  0  0
   16.0814   10.4178   11.2535 C   0  0  0  0  0  0  0  0  0  0  0  0
   16.7121   11.6778   11.2444 N   0  0  0  0  0  0  0  0  0  0  0  0
   18.1099   11.9175   11.3285 C   0  0  0  0  0  0  0  0  0  0  0  0
   19.0179   11.1334   10.6165 C   0  0  0  0  0  0  0  0  0  0  0  0
   20.3935   11.3662   10.7054 C   0  0  0  0  0  0  0  0  0  0  0  0
   20.8727   12.3943   11.5030 C   0  0  0  0  0  0  0  0  0  0  0  0
   22.2224   12.5240   11.6064 O   0  0  0  0  0  0  0  0  0  0  0  0
   19.9973   13.2335   12.1784 C   0  0  0  0  0  0  0  0  0  0  0  0
   18.6216   12.9983   12.0797 C   0  0  0  0  0  0  0  0  0  0  0  0
   17.5483   14.0129   12.9841 Cl  0  0  0  0  0  0  0  0  0  0  0  0
   15.7997    9.7959   12.4682 C   0  0  0  0  0  0  0  0  0  0  0  0
   15.0797    8.5822   12.5502 C   0  0  0  0  0  0  0  0  0  0  0  0
   14.8180    8.0225   13.9067 C   0  0  0  0  0  0  0  0  0  0  0  0
   13.7693    9.2765   14.9207 Br  0  0  0  0  0  0  0  0  0  0  0  0
   14.6425    7.9863   11.3674 C   0  0  0  0  0  0  0  0  0  0  0  0
   13.4888    6.1865   11.3232 I   0  0  0  0  0  0  0  0  0  0  0  0
  1  2  1  0
  2  3  1  0
  3  4  2  0
  4  5  1  0
  5  6  1  0
  6  7  1  0
  7  8  2  0
  8  9  1  0
  9 10  2  0
 10 11  1  0
 10 12  1  0
 12 13  2  0
 13 14  1  0
  5 15  2  0
 15 16  1  0
 16 17  1  0
 17 18  1  0
 16 19  2  0
 19 20  1  0
 19  3  1  0
 13  7  1  0
M  END
>  <ref_pdb>  (240) 
c0270a

>  <inchikey>  (240) 
RWYQTBGMMUPCOW-UHFFFAOYSA-N

>  <original ID>  (240) 
RWYQTBGMMUPCOW-UHFFFAOYSA-N

>  <generation_date>  (240) 
None

>  <alias>  (240) 
None

>  <tags>  (240) 
[]

>  <ref_mols>  (240) 
c0692a,c1116a

>  <ref_url>  (240) 
None

>  <submitter_name>  (240) 
None

>  <exports>  (240) 
nan

>  <original SMILES>  (240) 
COc1cc(Nc2ccc(O)cc2Cl)cc(CBr)c1I

>  <method>  (240) 
None

>  <submitter_email>  (240) 
None

>  <HIPPO ID>  (240) 
107726

$$$$
STRGXLKGHQZJGB-ZETCQYMHSA-N
     RDKit          3D

 14 15  0  0  0  0  0  0  0  0999 V2000
   16.3064   11.4373   13.1362 N   0  0  0  0  0  0  0  0  0  0  0  0
   15.9325   10.6364   12.0361 C   0  0  0  0  0  0  0  0  0  0  0  0
   14.9207    9.6977   12.2297 C   0  0  0  0  0  0  0  0  0  0  0  0
   14.1328    9.8435   13.3356 O   0  0  0  0  0  0  0  0  0  0  0  0
   14.6448    8.6759   11.3251 C   0  0  0  0  0  0  0  0  0  0  0  0
   15.2889    8.6679   10.1059 C   0  0  0  0  0  0  0  0  0  0  0  0
   16.3141    9.5802    9.8865 C   0  0  0  0  0  0  0  0  0  0  0  0
   16.6944   10.5148   10.8656 C   0  0  0  0  0  0  0  0  0  0  0  0
   17.9303   11.1680   10.6680 N   0  0  0  0  0  0  0  0  0  0  0  0
   18.3931   12.2837   11.3268 C   0  0  0  0  0  0  0  0  0  0  0  0
   17.6902   13.1557   11.8295 O   0  0  0  0  0  0  0  0  0  0  0  0
   19.8674   12.3625   11.4794 C   0  0  2  0  0  0  0  0  0  0  0  0
   20.8112   13.0421   10.5457 C   0  0  0  0  0  0  0  0  0  0  0  0
   20.5990   11.6251   10.4885 O   0  0  0  0  0  0  0  0  0  0  0  0
  1  2  1  0
  2  3  2  0
  3  4  1  0
  3  5  1  0
  5  6  2  0
  6  7  1  0
  7  8  2  0
  8  9  1  0
  9 10  1  0
 10 11  2  0
 12 10  1  6
 12 13  1  0
 13 14  1  0
  8  2  1  0
 14 12  1  0
M  END
>  <ref_pdb>  (241) 
c0270a

>  <inchikey>  (241) 
STRGXLKGHQZJGB-ZETCQYMHSA-N

>  <original ID>  (241) 
STRGXLKGHQZJGB-ZETCQYMHSA-N

>  <generation_date>  (241) 
None

>  <alias>  (241) 
None

>  <tags>  (241) 
[]

>  <ref_mols>  (241) 
c0692a,c1116a

>  <ref_url>  (241) 
None

>  <submitter_name>  (241) 
None

>  <exports>  (241) 
nan

>  <original SMILES>  (241) 
Nc1c(O)cccc1NC(=O)[C@@H]1CO1

>  <method>  (241) 
None

>  <submitter_email>  (241) 
None

>  <HIPPO ID>  (241) 
111415

$$$$
STRGXLKGHQZJGB-SSDOTTSWSA-N
     RDKit          3D

 14 15  0  0  0  0  0  0  0  0999 V2000
   16.3628   11.2582   13.1606 N   0  0  0  0  0  0  0  0  0  0  0  0
   15.9345   10.4943   12.0593 C   0  0  0  0  0  0  0  0  0  0  0  0
   14.9180    9.5635   12.2694 C   0  0  0  0  0  0  0  0  0  0  0  0
   14.1636    9.6949   13.4007 O   0  0  0  0  0  0  0  0  0  0  0  0
   14.5998    8.5591   11.3581 C   0  0  0  0  0  0  0  0  0  0  0  0
   15.1920    8.5697   10.1132 C   0  0  0  0  0  0  0  0  0  0  0  0
   16.2105    9.4815    9.8696 C   0  0  0  0  0  0  0  0  0  0  0  0
   16.6461   10.3852   10.8587 C   0  0  0  0  0  0  0  0  0  0  0  0
   17.8628   11.0397   10.5870 N   0  0  0  0  0  0  0  0  0  0  0  0
   18.4172   12.1380   11.2008 C   0  0  0  0  0  0  0  0  0  0  0  0
   17.8540   12.9084   11.9701 O   0  0  0  0  0  0  0  0  0  0  0  0
   19.7986   12.4495   10.7544 C   0  0  1  0  0  0  0  0  0  0  0  0
   21.0692   11.9758   11.4031 C   0  0  0  0  0  0  0  0  0  0  0  0
   20.5198   11.2964   10.2771 O   0  0  0  0  0  0  0  0  0  0  0  0
  1  2  1  0
  2  3  2  0
  3  4  1  0
  3  5  1  0
  5  6  2  0
  6  7  1  0
  7  8  2  0
  8  9  1  0
  9 10  1  0
 10 11  2  0
 12 10  1  1
 12 13  1  0
 13 14  1  0
  8  2  1  0
 14 12  1  0
M  END
>  <ref_pdb>  (242) 
c0270a

>  <inchikey>  (242) 
STRGXLKGHQZJGB-SSDOTTSWSA-N

>  <original ID>  (242) 
STRGXLKGHQZJGB-SSDOTTSWSA-N

>  <generation_date>  (242) 
None

>  <alias>  (242) 
None

>  <tags>  (242) 
[]

>  <ref_mols>  (242) 
c0692a,c1116a

>  <ref_url>  (242) 
None

>  <submitter_name>  (242) 
None

>  <exports>  (242) 
nan

>  <original SMILES>  (242) 
Nc1c(O)cccc1NC(=O)[C@H]1CO1

>  <method>  (242) 
None

>  <submitter_email>  (242) 
None

>  <HIPPO ID>  (242) 
111416

$$$$
QPFFXTAITBJALQ-QMMMGPOBSA-N
     RDKit          3D

 14 15  0  0  0  0  0  0  0  0999 V2000
   16.2996    9.4405    8.7485 N   0  0  0  0  0  0  0  0  0  0  0  0
   16.0187    9.4138   10.0999 C   0  0  0  0  0  0  0  0  0  0  0  0
   15.1256    8.4385   10.5418 C   0  0  0  0  0  0  0  0  0  0  0  0
   14.6079    8.5252   11.8172 C   0  0  0  0  0  0  0  0  0  0  0  0
   14.8472    9.6785   12.5553 C   0  0  0  0  0  0  0  0  0  0  0  0
   14.1498    9.9252   13.6629 F   0  0  0  0  0  0  0  0  0  0  0  0
   15.7601   10.6314   12.1575 C   0  0  0  0  0  0  0  0  0  0  0  0
   16.4249   10.4562   10.9580 C   0  0  0  0  0  0  0  0  0  0  0  0
   17.6097   11.1766   10.6671 N   0  0  0  0  0  0  0  0  0  0  0  0
   18.0944   12.2458   11.3988 C   0  0  0  0  0  0  0  0  0  0  0  0
   17.4036   13.0480   12.0153 O   0  0  0  0  0  0  0  0  0  0  0  0
   19.5740   12.3488   11.5167 C   0  0  2  0  0  0  0  0  0  0  0  0
   20.5320   12.9928   10.5767 C   0  0  0  0  0  0  0  0  0  0  0  0
   20.2952   11.5811   10.5400 O   0  0  0  0  0  0  0  0  0  0  0  0
  1  2  1  0
  2  3  2  0
  3  4  1  0
  4  5  2  0
  5  6  1  0
  5  7  1  0
  7  8  2  0
  8  9  1  0
  9 10  1  0
 10 11  2  0
 12 10  1  6
 12 13  1  0
 13 14  1  0
  8  2  1  0
 14 12  1  0
M  END
>  <ref_pdb>  (243) 
c0270a

>  <inchikey>  (243) 
QPFFXTAITBJALQ-QMMMGPOBSA-N

>  <original ID>  (243) 
QPFFXTAITBJALQ-QMMMGPOBSA-N

>  <generation_date>  (243) 
None

>  <alias>  (243) 
None

>  <tags>  (243) 
[]

>  <ref_mols>  (243) 
c0692a,c1116a

>  <ref_url>  (243) 
None

>  <submitter_name>  (243) 
None

>  <exports>  (243) 
['/opt/xchem-fragalysis-2/maxwin/CHIKV_HIPPO/hippo_prod/CHIKV_prod11_recipes/Recipe_1GERJCJ_poses.sdf']

>  <original SMILES>  (243) 
Nc1ccc(F)cc1NC(=O)[C@@H]1CO1

>  <method>  (243) 
None

>  <submitter_email>  (243) 
None

>  <HIPPO ID>  (243) 
111417

$$$$
QPFFXTAITBJALQ-MRVPVSSYSA-N
     RDKit          3D

 14 15  0  0  0  0  0  0  0  0999 V2000
   16.2757    9.4434    8.6202 N   0  0  0  0  0  0  0  0  0  0  0  0
   15.8538    9.4405    9.9444 C   0  0  0  0  0  0  0  0  0  0  0  0
   15.0088    8.4093   10.3440 C   0  0  0  0  0  0  0  0  0  0  0  0
   14.5480    8.3818   11.6456 C   0  0  0  0  0  0  0  0  0  0  0  0
   14.8592    9.4454   12.4856 C   0  0  0  0  0  0  0  0  0  0  0  0
   14.2156    9.6070   13.6400 F   0  0  0  0  0  0  0  0  0  0  0  0
   15.7916   10.3998   12.1461 C   0  0  0  0  0  0  0  0  0  0  0  0
   16.3797   10.3316   10.9000 C   0  0  0  0  0  0  0  0  0  0  0  0
   17.5385   11.0606   10.5798 N   0  0  0  0  0  0  0  0  0  0  0  0
   18.1824   11.9976   11.3615 C   0  0  0  0  0  0  0  0  0  0  0  0
   17.7397   12.5339   12.3681 O   0  0  0  0  0  0  0  0  0  0  0  0
   19.5089   12.4130   10.8391 C   0  0  1  0  0  0  0  0  0  0  0  0
   20.8585   11.9536   11.3273 C   0  0  0  0  0  0  0  0  0  0  0  0
   20.2260   11.3316   10.2143 O   0  0  0  0  0  0  0  0  0  0  0  0
  1  2  1  0
  2  3  2  0
  3  4  1  0
  4  5  2  0
  5  6  1  0
  5  7  1  0
  7  8  2  0
  8  9  1  0
  9 10  1  0
 10 11  2  0
 12 10  1  1
 12 13  1  0
 13 14  1  0
  8  2  1  0
 14 12  1  0
M  END
>  <ref_pdb>  (244) 
c0270a

>  <inchikey>  (244) 
QPFFXTAITBJALQ-MRVPVSSYSA-N

>  <original ID>  (244) 
QPFFXTAITBJALQ-MRVPVSSYSA-N

>  <generation_date>  (244) 
None

>  <alias>  (244) 
None

>  <tags>  (244) 
[]

>  <ref_mols>  (244) 
c0692a,c1116a

>  <ref_url>  (244) 
None

>  <submitter_name>  (244) 
None

>  <exports>  (244) 
['/opt/xchem-fragalysis-2/maxwin/CHIKV_HIPPO/hippo_prod/CHIKV_prod11_recipes/Recipe_1GERJCJ_poses.sdf']

>  <original SMILES>  (244) 
Nc1ccc(F)cc1NC(=O)[C@H]1CO1

>  <method>  (244) 
None

>  <submitter_email>  (244) 
None

>  <HIPPO ID>  (244) 
111418

$$$$
JDKXBLFATRSLCT-QMMMGPOBSA-N
     RDKit          3D

 14 15  0  0  0  0  0  0  0  0999 V2000
   16.2492    9.4519    8.7170 N   0  0  0  0  0  0  0  0  0  0  0  0
   16.0007    9.4220   10.0750 C   0  0  0  0  0  0  0  0  0  0  0  0
   15.1007    8.4595   10.5362 C   0  0  0  0  0  0  0  0  0  0  0  0
   14.6702    8.5002   11.8491 C   0  0  0  0  0  0  0  0  0  0  0  0
   15.0212    9.5936   12.6315 C   0  0  0  0  0  0  0  0  0  0  0  0
   14.3356    9.8458   14.3468 Br  0  0  0  0  0  0  0  0  0  0  0  0
   15.9077   10.5568   12.1880 C   0  0  0  0  0  0  0  0  0  0  0  0
   16.4749   10.4293   10.9354 C   0  0  0  0  0  0  0  0  0  0  0  0
   17.6497   11.1533   10.6147 N   0  0  0  0  0  0  0  0  0  0  0  0
   18.1459   12.2197   11.3463 C   0  0  0  0  0  0  0  0  0  0  0  0
   17.4590   13.0285   11.9601 O   0  0  0  0  0  0  0  0  0  0  0  0
   19.6245   12.3112   11.4705 C   0  0  2  0  0  0  0  0  0  0  0  0
   20.5822   12.9779   10.5467 C   0  0  0  0  0  0  0  0  0  0  0  0
   20.3473   11.5655   10.4813 O   0  0  0  0  0  0  0  0  0  0  0  0
  1  2  1  0
  2  3  2  0
  3  4  1  0
  4  5  2  0
  5  6  1  0
  5  7  1  0
  7  8  2  0
  8  9  1  0
  9 10  1  0
 10 11  2  0
 12 10  1  6
 12 13  1  0
 13 14  1  0
  8  2  1  0
 14 12  1  0
M  END
>  <ref_pdb>  (245) 
c0270a

>  <inchikey>  (245) 
JDKXBLFATRSLCT-QMMMGPOBSA-N

>  <original ID>  (245) 
JDKXBLFATRSLCT-QMMMGPOBSA-N

>  <generation_date>  (245) 
None

>  <alias>  (245) 
None

>  <tags>  (245) 
[]

>  <ref_mols>  (245) 
c0692a,c1116a

>  <ref_url>  (245) 
None

>  <submitter_name>  (245) 
None

>  <exports>  (245) 
nan

>  <original SMILES>  (245) 
Nc1ccc(Br)cc1NC(=O)[C@@H]1CO1

>  <method>  (245) 
None

>  <submitter_email>  (245) 
None

>  <HIPPO ID>  (245) 
111445

$$$$
JDKXBLFATRSLCT-MRVPVSSYSA-N
     RDKit          3D

 14 15  0  0  0  0  0  0  0  0999 V2000
   16.2294    9.4494    8.6204 N   0  0  0  0  0  0  0  0  0  0  0  0
   15.8459    9.4529    9.9576 C   0  0  0  0  0  0  0  0  0  0  0  0
   14.9988    8.4341   10.3885 C   0  0  0  0  0  0  0  0  0  0  0  0
   14.6089    8.3845   11.7172 C   0  0  0  0  0  0  0  0  0  0  0  0
   15.0027    9.4104   12.5700 C   0  0  0  0  0  0  0  0  0  0  0  0
   14.3434    9.5813   14.3093 Br  0  0  0  0  0  0  0  0  0  0  0  0
   15.9118   10.3715   12.1747 C   0  0  0  0  0  0  0  0  0  0  0  0
   16.4237   10.3268   10.8953 C   0  0  0  0  0  0  0  0  0  0  0  0
   17.5779   11.0501   10.5457 N   0  0  0  0  0  0  0  0  0  0  0  0
   18.2341   11.9952   11.3100 C   0  0  0  0  0  0  0  0  0  0  0  0
   17.7954   12.5624   12.3016 O   0  0  0  0  0  0  0  0  0  0  0  0
   19.5694   12.3802   10.7901 C   0  0  1  0  0  0  0  0  0  0  0  0
   20.9045   11.9172   11.3122 C   0  0  0  0  0  0  0  0  0  0  0  0
   20.2832   11.2765   10.2029 O   0  0  0  0  0  0  0  0  0  0  0  0
  1  2  1  0
  2  3  2  0
  3  4  1  0
  4  5  2  0
  5  6  1  0
  5  7  1  0
  7  8  2  0
  8  9  1  0
  9 10  1  0
 10 11  2  0
 12 10  1  1
 12 13  1  0
 13 14  1  0
  8  2  1  0
 14 12  1  0
M  END
>  <ref_pdb>  (246) 
c0270a

>  <inchikey>  (246) 
JDKXBLFATRSLCT-MRVPVSSYSA-N

>  <original ID>  (246) 
JDKXBLFATRSLCT-MRVPVSSYSA-N

>  <generation_date>  (246) 
None

>  <alias>  (246) 
None

>  <tags>  (246) 
[]

>  <ref_mols>  (246) 
c0692a,c1116a

>  <ref_url>  (246) 
None

>  <submitter_name>  (246) 
None

>  <exports>  (246) 
nan

>  <original SMILES>  (246) 
Nc1ccc(Br)cc1NC(=O)[C@H]1CO1

>  <method>  (246) 
None

>  <submitter_email>  (246) 
None

>  <HIPPO ID>  (246) 
111446

$$$$
QZGCJUWWWQCQFQ-VIFPVBQESA-N
     RDKit          3D

 15 16  0  0  0  0  0  0  0  0999 V2000
   14.4117    9.2011   13.8427 C   0  0  0  0  0  0  0  0  0  0  0  0
   14.9241    9.1221   12.4462 C   0  0  0  0  0  0  0  0  0  0  0  0
   15.8330   10.1337   12.1068 C   0  0  0  0  0  0  0  0  0  0  0  0
   16.3683   10.2063   10.8342 C   0  0  0  0  0  0  0  0  0  0  0  0
   17.5020   10.9950   10.5339 N   0  0  0  0  0  0  0  0  0  0  0  0
   18.0434   11.9863   11.3267 C   0  0  0  0  0  0  0  0  0  0  0  0
   17.4790   12.5153   12.2774 O   0  0  0  0  0  0  0  0  0  0  0  0
   19.3964   12.4859   10.9399 C   0  0  2  0  0  0  0  0  0  0  0  0
   20.5626   11.6321   10.4797 C   0  0  0  0  0  0  0  0  0  0  0  0
   20.4243   12.0173   11.8336 O   0  0  0  0  0  0  0  0  0  0  0  0
   15.8313    9.3810    9.8399 C   0  0  0  0  0  0  0  0  0  0  0  0
   16.2676    9.4369    8.5237 N   0  0  0  0  0  0  0  0  0  0  0  0
   14.9832    8.3329   10.1776 C   0  0  0  0  0  0  0  0  0  0  0  0
   14.5681    8.1647   11.4867 C   0  0  0  0  0  0  0  0  0  0  0  0
   13.5292    6.6093   11.8284 Br  0  0  0  0  0  0  0  0  0  0  0  0
  1  2  1  0
  2  3  2  0
  3  4  1  0
  4  5  1  0
  5  6  1  0
  6  7  2  0
  8  6  1  1
  8  9  1  0
  9 10  1  0
  4 11  2  0
 11 12  1  0
 11 13  1  0
 13 14  2  0
 14 15  1  0
 14  2  1  0
 10  8  1  0
M  END
>  <ref_pdb>  (247) 
c0270a

>  <inchikey>  (247) 
QZGCJUWWWQCQFQ-VIFPVBQESA-N

>  <original ID>  (247) 
QZGCJUWWWQCQFQ-VIFPVBQESA-N

>  <generation_date>  (247) 
None

>  <alias>  (247) 
None

>  <tags>  (247) 
[]

>  <ref_mols>  (247) 
c0692a,c1116a

>  <ref_url>  (247) 
None

>  <submitter_name>  (247) 
None

>  <exports>  (247) 
nan

>  <original SMILES>  (247) 
Cc1cc(NC(=O)[C@@H]2CO2)c(N)cc1Br

>  <method>  (247) 
None

>  <submitter_email>  (247) 
None

>  <HIPPO ID>  (247) 
111450

$$$$
QZGCJUWWWQCQFQ-SECBINFHSA-N
     RDKit          3D

 15 16  0  0  0  0  0  0  0  0999 V2000
   14.3856    9.1621   13.8706 C   0  0  0  0  0  0  0  0  0  0  0  0
   14.8967    9.1032   12.4729 C   0  0  0  0  0  0  0  0  0  0  0  0
   15.7921   10.1287   12.1443 C   0  0  0  0  0  0  0  0  0  0  0  0
   16.3313   10.2105   10.8757 C   0  0  0  0  0  0  0  0  0  0  0  0
   17.4547   11.0067   10.5862 N   0  0  0  0  0  0  0  0  0  0  0  0
   18.0820   11.9199   11.4082 C   0  0  0  0  0  0  0  0  0  0  0  0
   17.6432   12.3869   12.4506 O   0  0  0  0  0  0  0  0  0  0  0  0
   19.3858   12.4061   10.8863 C   0  0  1  0  0  0  0  0  0  0  0  0
   20.7632   11.9683   11.3198 C   0  0  0  0  0  0  0  0  0  0  0  0
   20.1237   11.3821   10.1931 O   0  0  0  0  0  0  0  0  0  0  0  0
   15.8094    9.3873    9.8695 C   0  0  0  0  0  0  0  0  0  0  0  0
   16.2589    9.4492    8.5562 N   0  0  0  0  0  0  0  0  0  0  0  0
   14.9699    8.3295   10.1970 C   0  0  0  0  0  0  0  0  0  0  0  0
   14.5521    8.1496   11.5041 C   0  0  0  0  0  0  0  0  0  0  0  0
   13.5151    6.5895   11.8309 Br  0  0  0  0  0  0  0  0  0  0  0  0
  1  2  1  0
  2  3  2  0
  3  4  1  0
  4  5  1  0
  5  6  1  0
  6  7  2  0
  8  6  1  1
  8  9  1  0
  9 10  1  0
  4 11  2  0
 11 12  1  0
 11 13  1  0
 13 14  2  0
 14 15  1  0
 14  2  1  0
 10  8  1  0
M  END
>  <ref_pdb>  (248) 
c0270a

>  <inchikey>  (248) 
QZGCJUWWWQCQFQ-SECBINFHSA-N

>  <original ID>  (248) 
QZGCJUWWWQCQFQ-SECBINFHSA-N

>  <generation_date>  (248) 
None

>  <alias>  (248) 
None

>  <tags>  (248) 
[]

>  <ref_mols>  (248) 
c0692a,c1116a

>  <ref_url>  (248) 
None

>  <submitter_name>  (248) 
None

>  <exports>  (248) 
nan

>  <original SMILES>  (248) 
Cc1cc(NC(=O)[C@H]2CO2)c(N)cc1Br

>  <method>  (248) 
None

>  <submitter_email>  (248) 
None

>  <HIPPO ID>  (248) 
111451

$$$$
LEKBTRYTLKTSBK-QMMMGPOBSA-N
     RDKit          3D

 15 16  0  0  0  0  0  0  0  0999 V2000
   18.8867   10.8013   10.3090 C   0  0  0  0  0  0  0  0  0  0  0  0
   17.7507   11.4495   10.8994 N   0  0  0  0  0  0  0  0  0  0  0  0
   17.9442   12.6418   11.6041 C   0  0  0  0  0  0  0  0  0  0  0  0
   16.9943   13.3433   11.9597 O   0  0  0  0  0  0  0  0  0  0  0  0
   19.3032   13.1313   12.0252 C   0  0  2  0  0  0  0  0  0  0  0  0
   20.3464   13.6735   11.0824 C   0  0  0  0  0  0  0  0  0  0  0  0
   20.4816   12.3851   11.6807 O   0  0  0  0  0  0  0  0  0  0  0  0
   16.5671   10.6302   11.0484 C   0  0  0  0  0  0  0  0  0  0  0  0
   16.1629    9.7710   10.0000 C   0  0  0  0  0  0  0  0  0  0  0  0
   15.2223    8.7579   10.1780 C   0  0  0  0  0  0  0  0  0  0  0  0
   14.7032    8.5473   11.4391 C   0  0  0  0  0  0  0  0  0  0  0  0
   15.0280    9.4376   12.4637 C   0  0  0  0  0  0  0  0  0  0  0  0
   14.2815    9.2029   14.1809 Br  0  0  0  0  0  0  0  0  0  0  0  0
   15.8974   10.5248   12.2799 C   0  0  0  0  0  0  0  0  0  0  0  0
   16.2626   11.3007   13.4173 N   0  0  0  0  0  0  0  0  0  0  0  0
  1  2  1  0
  2  3  1  0
  3  4  2  0
  5  3  1  6
  5  6  1  0
  6  7  1  0
  2  8  1  0
  8  9  2  0
  9 10  1  0
 10 11  2  0
 11 12  1  0
 12 13  1  0
 12 14  2  0
 14 15  1  0
  7  5  1  0
 14  8  1  0
M  END
>  <ref_pdb>  (249) 
c0270a

>  <inchikey>  (249) 
LEKBTRYTLKTSBK-QMMMGPOBSA-N

>  <original ID>  (249) 
LEKBTRYTLKTSBK-QMMMGPOBSA-N

>  <generation_date>  (249) 
None

>  <alias>  (249) 
None

>  <tags>  (249) 
[]

>  <ref_mols>  (249) 
c0692a,c1116a

>  <ref_url>  (249) 
None

>  <submitter_name>  (249) 
None

>  <exports>  (249) 
nan

>  <original SMILES>  (249) 
CN(C(=O)[C@@H]1CO1)c1cccc(Br)c1N

>  <method>  (249) 
None

>  <submitter_email>  (249) 
None

>  <HIPPO ID>  (249) 
111455

$$$$
LEKBTRYTLKTSBK-MRVPVSSYSA-N
     RDKit          3D

 15 16  0  0  0  0  0  0  0  0999 V2000
   18.8566   10.7409   10.2744 C   0  0  0  0  0  0  0  0  0  0  0  0
   17.7482   11.4461   10.8564 N   0  0  0  0  0  0  0  0  0  0  0  0
   18.0477   12.6561   11.4907 C   0  0  0  0  0  0  0  0  0  0  0  0
   17.2337   13.3408   12.1050 O   0  0  0  0  0  0  0  0  0  0  0  0
   19.4214   13.2290   11.2771 C   0  0  1  0  0  0  0  0  0  0  0  0
   20.3591   13.5507   12.4031 C   0  0  0  0  0  0  0  0  0  0  0  0
   20.5374   12.3791   11.6199 O   0  0  0  0  0  0  0  0  0  0  0  0
   16.5600   10.6556   11.0590 C   0  0  0  0  0  0  0  0  0  0  0  0
   16.1217    9.7957   10.0192 C   0  0  0  0  0  0  0  0  0  0  0  0
   15.1882    8.7834   10.2196 C   0  0  0  0  0  0  0  0  0  0  0  0
   14.6936    8.5908   11.4915 C   0  0  0  0  0  0  0  0  0  0  0  0
   15.0300    9.4999   12.4982 C   0  0  0  0  0  0  0  0  0  0  0  0
   14.2815    9.2955   14.2173 Br  0  0  0  0  0  0  0  0  0  0  0  0
   15.9091   10.5777   12.2971 C   0  0  0  0  0  0  0  0  0  0  0  0
   16.3154   11.3394   13.4242 N   0  0  0  0  0  0  0  0  0  0  0  0
  1  2  1  0
  2  3  1  0
  3  4  2  0
  5  3  1  1
  5  6  1  0
  6  7  1  0
  2  8  1  0
  8  9  2  0
  9 10  1  0
 10 11  2  0
 11 12  1  0
 12 13  1  0
 12 14  2  0
 14 15  1  0
  7  5  1  0
 14  8  1  0
M  END
>  <ref_pdb>  (250) 
c0270a

>  <inchikey>  (250) 
LEKBTRYTLKTSBK-MRVPVSSYSA-N

>  <original ID>  (250) 
LEKBTRYTLKTSBK-MRVPVSSYSA-N

>  <generation_date>  (250) 
None

>  <alias>  (250) 
None

>  <tags>  (250) 
[]

>  <ref_mols>  (250) 
c0692a,c1116a

>  <ref_url>  (250) 
None

>  <submitter_name>  (250) 
None

>  <exports>  (250) 
nan

>  <original SMILES>  (250) 
CN(C(=O)[C@H]1CO1)c1cccc(Br)c1N

>  <method>  (250) 
None

>  <submitter_email>  (250) 
None

>  <HIPPO ID>  (250) 
111456

$$$$
UJZQWMOENMGLLC-ZETCQYMHSA-N
     RDKit          3D

 15 16  0  0  0  0  0  0  0  0999 V2000
   16.4811   11.4325   13.3081 N   0  0  0  0  0  0  0  0  0  0  0  0
   16.0134   10.6702   12.2197 C   0  0  0  0  0  0  0  0  0  0  0  0
   14.9969    9.7501   12.4602 C   0  0  0  0  0  0  0  0  0  0  0  0
   14.2399    9.8758   13.5883 O   0  0  0  0  0  0  0  0  0  0  0  0
   14.6168    8.8035   11.5326 C   0  0  0  0  0  0  0  0  0  0  0  0
   15.0383    8.9850   10.2383 C   0  0  0  0  0  0  0  0  0  0  0  0
   13.8751    8.4339    8.8796 Br  0  0  0  0  0  0  0  0  0  0  0  0
   16.1369    9.7794    9.9677 C   0  0  0  0  0  0  0  0  0  0  0  0
   16.6755   10.5831   10.9799 C   0  0  0  0  0  0  0  0  0  0  0  0
   17.9128   11.2048   10.7164 N   0  0  0  0  0  0  0  0  0  0  0  0
   18.4214   12.3057   11.3672 C   0  0  0  0  0  0  0  0  0  0  0  0
   17.7435   13.1810   11.8987 O   0  0  0  0  0  0  0  0  0  0  0  0
   19.8992   12.3562   11.4790 C   0  0  2  0  0  0  0  0  0  0  0  0
   20.8270   13.0350   10.5297 C   0  0  0  0  0  0  0  0  0  0  0  0
   20.5883   11.6221   10.4572 O   0  0  0  0  0  0  0  0  0  0  0  0
  1  2  1  0
  2  3  2  0
  3  4  1  0
  3  5  1  0
  5  6  2  0
  6  7  1  0
  6  8  1  0
  8  9  2  0
  9 10  1  0
 10 11  1  0
 11 12  2  0
 13 11  1  6
 13 14  1  0
 14 15  1  0
  9  2  1  0
 15 13  1  0
M  END
>  <ref_pdb>  (251) 
c0270a

>  <inchikey>  (251) 
UJZQWMOENMGLLC-ZETCQYMHSA-N

>  <original ID>  (251) 
UJZQWMOENMGLLC-ZETCQYMHSA-N

>  <generation_date>  (251) 
None

>  <alias>  (251) 
None

>  <tags>  (251) 
[]

>  <ref_mols>  (251) 
c0692a,c1116a

>  <ref_url>  (251) 
None

>  <submitter_name>  (251) 
None

>  <exports>  (251) 
nan

>  <original SMILES>  (251) 
Nc1c(O)cc(Br)cc1NC(=O)[C@@H]1CO1

>  <method>  (251) 
None

>  <submitter_email>  (251) 
None

>  <HIPPO ID>  (251) 
111462

$$$$
FNFCZSIVCRCIDW-VIFPVBQESA-N
     RDKit          3D

 15 16  0  0  0  0  0  0  0  0999 V2000
   14.8598    9.8609    8.5817 C   0  0  0  0  0  0  0  0  0  0  0  0
   16.1521    9.3093    8.9612 N   0  0  0  0  0  0  0  0  0  0  0  0
   16.1294    9.2598   10.3719 C   0  0  0  0  0  0  0  0  0  0  0  0
   15.2773    8.2980   10.9404 C   0  0  0  0  0  0  0  0  0  0  0  0
   14.8029    8.4855   12.2203 C   0  0  0  0  0  0  0  0  0  0  0  0
   15.1308    9.6661   12.8726 C   0  0  0  0  0  0  0  0  0  0  0  0
   14.3567   10.1254   14.4974 Br  0  0  0  0  0  0  0  0  0  0  0  0
   16.0386   10.5775   12.3576 C   0  0  0  0  0  0  0  0  0  0  0  0
   16.6099   10.3460   11.1246 C   0  0  0  0  0  0  0  0  0  0  0  0
   17.7231   11.0959   10.6791 N   0  0  0  0  0  0  0  0  0  0  0  0
   18.2140   12.2130   11.3342 C   0  0  0  0  0  0  0  0  0  0  0  0
   17.5207   13.0587   11.8885 O   0  0  0  0  0  0  0  0  0  0  0  0
   19.6914   12.3057   11.4600 C   0  0  2  0  0  0  0  0  0  0  0  0
   20.6404   12.9835   10.5350 C   0  0  0  0  0  0  0  0  0  0  0  0
   20.4136   11.5694   10.4646 O   0  0  0  0  0  0  0  0  0  0  0  0
  1  2  1  0
  2  3  1  0
  3  4  2  0
  4  5  1  0
  5  6  2  0
  6  7  1  0
  6  8  1  0
  8  9  2  0
  9 10  1  0
 10 11  1  0
 11 12  2  0
 13 11  1  6
 13 14  1  0
 14 15  1  0
  9  3  1  0
 15 13  1  0
M  END
>  <ref_pdb>  (252) 
c0270a

>  <inchikey>  (252) 
FNFCZSIVCRCIDW-VIFPVBQESA-N

>  <original ID>  (252) 
FNFCZSIVCRCIDW-VIFPVBQESA-N

>  <generation_date>  (252) 
None

>  <alias>  (252) 
None

>  <tags>  (252) 
[]

>  <ref_mols>  (252) 
c0692a,c1116a

>  <ref_url>  (252) 
None

>  <submitter_name>  (252) 
None

>  <exports>  (252) 
['/opt/xchem-fragalysis-2/maxwin/CHIKV_HIPPO/hippo_prod/CHIKV_prod11_recipes/Recipe_1GERJCJ_poses.sdf']

>  <original SMILES>  (252) 
CNc1ccc(Br)cc1NC(=O)[C@@H]1CO1

>  <method>  (252) 
None

>  <submitter_email>  (252) 
None

>  <HIPPO ID>  (252) 
111489

$$$$
FNFCZSIVCRCIDW-SECBINFHSA-N
     RDKit          3D

 15 16  0  0  0  0  0  0  0  0999 V2000
   14.8043    9.8470    8.5769 C   0  0  0  0  0  0  0  0  0  0  0  0
   16.0761    9.2474    8.9447 N   0  0  0  0  0  0  0  0  0  0  0  0
   16.0503    9.1640   10.3531 C   0  0  0  0  0  0  0  0  0  0  0  0
   15.1872    8.2030   10.9027 C   0  0  0  0  0  0  0  0  0  0  0  0
   14.7398    8.3557   12.1978 C   0  0  0  0  0  0  0  0  0  0  0  0
   15.1024    9.5063   12.8851 C   0  0  0  0  0  0  0  0  0  0  0  0
   14.3385    9.9435   14.5233 Br  0  0  0  0  0  0  0  0  0  0  0  0
   16.0234   10.4130   12.3866 C   0  0  0  0  0  0  0  0  0  0  0  0
   16.5647   10.2131   11.1358 C   0  0  0  0  0  0  0  0  0  0  0  0
   17.6530   10.9690   10.6596 N   0  0  0  0  0  0  0  0  0  0  0  0
   18.2650   12.0228   11.3098 C   0  0  0  0  0  0  0  0  0  0  0  0
   17.7918   12.6876   12.2220 O   0  0  0  0  0  0  0  0  0  0  0  0
   19.6003   12.3848   10.7740 C   0  0  1  0  0  0  0  0  0  0  0  0
   20.9300   11.9296   11.3159 C   0  0  0  0  0  0  0  0  0  0  0  0
   20.3129   11.2649   10.2176 O   0  0  0  0  0  0  0  0  0  0  0  0
  1  2  1  0
  2  3  1  0
  3  4  2  0
  4  5  1  0
  5  6  2  0
  6  7  1  0
  6  8  1  0
  8  9  2  0
  9 10  1  0
 10 11  1  0
 11 12  2  0
 13 11  1  1
 13 14  1  0
 14 15  1  0
  9  3  1  0
 15 13  1  0
M  END
>  <ref_pdb>  (253) 
c0270a

>  <inchikey>  (253) 
FNFCZSIVCRCIDW-SECBINFHSA-N

>  <original ID>  (253) 
FNFCZSIVCRCIDW-SECBINFHSA-N

>  <generation_date>  (253) 
None

>  <alias>  (253) 
None

>  <tags>  (253) 
[]

>  <ref_mols>  (253) 
c0692a,c1116a

>  <ref_url>  (253) 
None

>  <submitter_name>  (253) 
None

>  <exports>  (253) 
['/opt/xchem-fragalysis-2/maxwin/CHIKV_HIPPO/hippo_prod/CHIKV_prod11_recipes/Recipe_1GERJCJ_poses.sdf']

>  <original SMILES>  (253) 
CNc1ccc(Br)cc1NC(=O)[C@H]1CO1

>  <method>  (253) 
None

>  <submitter_email>  (253) 
None

>  <HIPPO ID>  (253) 
111490

$$$$
SILQUNODIYOWIA-JTQLQIEISA-N
     RDKit          3D

 15 17  0  0  0  0  0  0  0  0999 V2000
   13.9792   12.6063   11.0490 O   0  0  0  0  0  0  0  0  0  0  0  0
   14.1032   12.1965   12.2005 C   0  0  0  0  0  0  0  0  0  0  0  0
   14.1051   13.1942   13.3097 C   0  0  2  0  0  0  0  0  0  0  0  0
   14.9657   14.4375   13.2139 C   0  0  0  0  0  0  0  0  0  0  0  0
   15.3416   13.3455   14.0399 O   0  0  0  0  0  0  0  0  0  0  0  0
   14.2432   10.8172   12.5589 N   0  0  0  0  0  0  0  0  0  0  0  0
   14.7261   10.5268   13.9038 C   0  0  0  0  0  0  0  0  0  0  0  0
   16.2588   10.6150   13.9865 C   0  0  0  0  0  0  0  0  0  0  0  0
   16.9326   11.1017   12.7524 N   0  0  0  0  0  0  0  0  0  0  0  0
   16.3813   10.4391   11.6212 C   0  0  0  0  0  0  0  0  0  0  0  0
   17.0819   10.2373   10.4566 C   0  0  0  0  0  0  0  0  0  0  0  0
   16.4774    9.5240    9.4158 C   0  0  0  0  0  0  0  0  0  0  0  0
   15.2495    8.9222    9.5555 C   0  0  0  0  0  0  0  0  0  0  0  0
   14.5470    9.1681   10.7013 C   0  0  0  0  0  0  0  0  0  0  0  0
   15.0329   10.0891   11.6176 C   0  0  0  0  0  0  0  0  0  0  0  0
  1  2  2  0
  3  2  1  6
  3  4  1  0
  4  5  1  0
  2  6  1  0
  6  7  1  0
  7  8  1  0
  8  9  1  0
  9 10  1  0
 10 11  2  0
 11 12  1  0
 12 13  2  0
 13 14  1  0
 14 15  2  0
  5  3  1  0
 15  6  1  0
 15 10  1  0
M  END
>  <ref_pdb>  (254) 
c0270a

>  <inchikey>  (254) 
SILQUNODIYOWIA-JTQLQIEISA-N

>  <original ID>  (254) 
SILQUNODIYOWIA-JTQLQIEISA-N

>  <generation_date>  (254) 
None

>  <alias>  (254) 
None

>  <tags>  (254) 
[]

>  <ref_mols>  (254) 
c0692a,c1116a

>  <ref_url>  (254) 
None

>  <submitter_name>  (254) 
None

>  <exports>  (254) 
nan

>  <original SMILES>  (254) 
O=C([C@@H]1CO1)N1CCNc2ccccc21

>  <method>  (254) 
None

>  <submitter_email>  (254) 
None

>  <HIPPO ID>  (254) 
111500

$$$$
SILQUNODIYOWIA-SNVBAGLBSA-N
     RDKit          3D

 15 17  0  0  0  0  0  0  0  0999 V2000
   14.9566   13.5102   12.3924 O   0  0  0  0  0  0  0  0  0  0  0  0
   14.8586   12.4598   11.7579 C   0  0  0  0  0  0  0  0  0  0  0  0
   13.7287   12.2819   10.8333 C   0  0  1  0  0  0  0  0  0  0  0  0
   12.4638   12.9645   11.2064 C   0  0  0  0  0  0  0  0  0  0  0  0
   13.2819   13.4665   10.2007 O   0  0  0  0  0  0  0  0  0  0  0  0
   15.6714   11.3667   12.0159 N   0  0  0  0  0  0  0  0  0  0  0  0
   16.3514   11.3838   13.2955 C   0  0  0  0  0  0  0  0  0  0  0  0
   15.7008   10.3884   14.2469 C   0  0  0  0  0  0  0  0  0  0  0  0
   15.7535    9.0394   13.6831 N   0  0  0  0  0  0  0  0  0  0  0  0
   15.4162    8.9620   12.3159 C   0  0  0  0  0  0  0  0  0  0  0  0
   15.1115    7.7187   11.7623 C   0  0  0  0  0  0  0  0  0  0  0  0
   14.7985    7.5894   10.4094 C   0  0  0  0  0  0  0  0  0  0  0  0
   14.9126    8.6776    9.5645 C   0  0  0  0  0  0  0  0  0  0  0  0
   15.3193    9.8962   10.0769 C   0  0  0  0  0  0  0  0  0  0  0  0
   15.4790   10.0720   11.4542 C   0  0  0  0  0  0  0  0  0  0  0  0
  1  2  2  0
  3  2  1  1
  3  4  1  0
  4  5  1  0
  2  6  1  0
  6  7  1  0
  7  8  1  0
  8  9  1  0
  9 10  1  0
 10 11  2  0
 11 12  1  0
 12 13  2  0
 13 14  1  0
 14 15  2  0
  5  3  1  0
 15  6  1  0
 15 10  1  0
M  END
>  <ref_pdb>  (255) 
c0270a

>  <inchikey>  (255) 
SILQUNODIYOWIA-SNVBAGLBSA-N

>  <original ID>  (255) 
SILQUNODIYOWIA-SNVBAGLBSA-N

>  <generation_date>  (255) 
None

>  <alias>  (255) 
None

>  <tags>  (255) 
[]

>  <ref_mols>  (255) 
c0692a,c1116a

>  <ref_url>  (255) 
None

>  <submitter_name>  (255) 
None

>  <exports>  (255) 
nan

>  <original SMILES>  (255) 
O=C([C@H]1CO1)N1CCNc2ccccc21

>  <method>  (255) 
None

>  <submitter_email>  (255) 
None

>  <HIPPO ID>  (255) 
111501

$$$$
KANNEGXAGGSHSU-ZETCQYMHSA-N
     RDKit          3D

 15 16  0  0  0  0  0  0  0  0999 V2000
   13.7654    7.1433   11.1860 C   0  0  0  0  0  0  0  0  0  0  0  0
   14.6110    8.3702   11.0271 C   0  0  0  0  0  0  0  0  0  0  0  0
   15.2225    8.5986    9.8114 C   0  0  0  0  0  0  0  0  0  0  0  0
   16.2216    9.5593    9.7086 C   0  0  0  0  0  0  0  0  0  0  0  0
   16.5702   10.3885   10.7824 C   0  0  0  0  0  0  0  0  0  0  0  0
   17.7714   11.1227   10.6574 N   0  0  0  0  0  0  0  0  0  0  0  0
   18.1693   12.2149   11.3959 C   0  0  0  0  0  0  0  0  0  0  0  0
   17.4134   12.9953   11.9667 O   0  0  0  0  0  0  0  0  0  0  0  0
   19.6391   12.3901   11.5471 C   0  0  2  0  0  0  0  0  0  0  0  0
   20.5802   13.0640   10.6076 C   0  0  0  0  0  0  0  0  0  0  0  0
   20.4137   11.6434   10.5912 O   0  0  0  0  0  0  0  0  0  0  0  0
   15.8083   10.3243   11.9516 C   0  0  0  0  0  0  0  0  0  0  0  0
   16.1172   11.0419   13.1350 N   0  0  0  0  0  0  0  0  0  0  0  0
   14.8861    9.2732   12.0579 C   0  0  0  0  0  0  0  0  0  0  0  0
   14.2331    9.1893   13.2202 F   0  0  0  0  0  0  0  0  0  0  0  0
  1  2  1  0
  2  3  2  0
  3  4  1  0
  4  5  2  0
  5  6  1  0
  6  7  1  0
  7  8  2  0
  9  7  1  6
  9 10  1  0
 10 11  1  0
  5 12  1  0
 12 13  1  0
 12 14  2  0
 14 15  1  0
 14  2  1  0
 11  9  1  0
M  END
>  <ref_pdb>  (256) 
c0270a

>  <inchikey>  (256) 
KANNEGXAGGSHSU-ZETCQYMHSA-N

>  <original ID>  (256) 
KANNEGXAGGSHSU-ZETCQYMHSA-N

>  <generation_date>  (256) 
None

>  <alias>  (256) 
None

>  <tags>  (256) 
[]

>  <ref_mols>  (256) 
c0692a,c1116a

>  <ref_url>  (256) 
None

>  <submitter_name>  (256) 
None

>  <exports>  (256) 
nan

>  <original SMILES>  (256) 
Cc1ccc(NC(=O)[C@@H]2CO2)c(N)c1F

>  <method>  (256) 
None

>  <submitter_email>  (256) 
None

>  <HIPPO ID>  (256) 
111672

$$$$
KANNEGXAGGSHSU-SSDOTTSWSA-N
     RDKit          3D

 15 16  0  0  0  0  0  0  0  0999 V2000
   13.6701    7.0344   11.1835 C   0  0  0  0  0  0  0  0  0  0  0  0
   14.5271    8.2528   11.0232 C   0  0  0  0  0  0  0  0  0  0  0  0
   15.0795    8.5240    9.7883 C   0  0  0  0  0  0  0  0  0  0  0  0
   16.0813    9.4793    9.6764 C   0  0  0  0  0  0  0  0  0  0  0  0
   16.5058   10.2435   10.7750 C   0  0  0  0  0  0  0  0  0  0  0  0
   17.6862   10.9859   10.5779 N   0  0  0  0  0  0  0  0  0  0  0  0
   18.2157   12.0179   11.3173 C   0  0  0  0  0  0  0  0  0  0  0  0
   17.6530   12.6448   12.2068 O   0  0  0  0  0  0  0  0  0  0  0  0
   19.5602   12.4588   10.8581 C   0  0  1  0  0  0  0  0  0  0  0  0
   20.8953   12.0122   11.3933 C   0  0  0  0  0  0  0  0  0  0  0  0
   20.3214   11.3995   10.2444 O   0  0  0  0  0  0  0  0  0  0  0  0
   15.8073   10.1394   11.9773 C   0  0  0  0  0  0  0  0  0  0  0  0
   16.1875   10.7834   13.1760 N   0  0  0  0  0  0  0  0  0  0  0  0
   14.8652    9.1070   12.0768 C   0  0  0  0  0  0  0  0  0  0  0  0
   14.2460    8.9955   13.2551 F   0  0  0  0  0  0  0  0  0  0  0  0
  1  2  1  0
  2  3  2  0
  3  4  1  0
  4  5  2  0
  5  6  1  0
  6  7  1  0
  7  8  2  0
  9  7  1  1
  9 10  1  0
 10 11  1  0
  5 12  1  0
 12 13  1  0
 12 14  2  0
 14 15  1  0
 14  2  1  0
 11  9  1  0
M  END
>  <ref_pdb>  (257) 
c0270a

>  <inchikey>  (257) 
KANNEGXAGGSHSU-SSDOTTSWSA-N

>  <original ID>  (257) 
KANNEGXAGGSHSU-SSDOTTSWSA-N

>  <generation_date>  (257) 
None

>  <alias>  (257) 
None

>  <tags>  (257) 
[]

>  <ref_mols>  (257) 
c0692a,c1116a

>  <ref_url>  (257) 
None

>  <submitter_name>  (257) 
None

>  <exports>  (257) 
nan

>  <original SMILES>  (257) 
Cc1ccc(NC(=O)[C@H]2CO2)c(N)c1F

>  <method>  (257) 
None

>  <submitter_email>  (257) 
None

>  <HIPPO ID>  (257) 
111673

$$$$
AAFUEJKMNBWZKX-VIFPVBQESA-N
     RDKit          3D

 15 16  0  0  0  0  0  0  0  0999 V2000
   14.4086   10.0183   14.0464 C   0  0  0  0  0  0  0  0  0  0  0  0
   14.9963    9.7317   12.7124 C   0  0  0  0  0  0  0  0  0  0  0  0
   14.6060    8.6517   11.9259 C   0  0  0  0  0  0  0  0  0  0  0  0
   14.9223    8.6329   10.5718 C   0  0  0  0  0  0  0  0  0  0  0  0
   14.1656    7.6998    9.6684 C   0  0  0  0  0  0  0  0  0  0  0  0
   15.9033    9.5162   10.0991 C   0  0  0  0  0  0  0  0  0  0  0  0
   16.1828    9.5239    8.7415 N   0  0  0  0  0  0  0  0  0  0  0  0
   16.4649   10.4775   10.9636 C   0  0  0  0  0  0  0  0  0  0  0  0
   17.6635   11.1537   10.6270 N   0  0  0  0  0  0  0  0  0  0  0  0
   18.1876   12.2225   11.3363 C   0  0  0  0  0  0  0  0  0  0  0  0
   17.5220   13.0608   11.9347 O   0  0  0  0  0  0  0  0  0  0  0  0
   19.6678   12.2850   11.4508 C   0  0  2  0  0  0  0  0  0  0  0  0
   20.6216   12.9583   10.5278 C   0  0  0  0  0  0  0  0  0  0  0  0
   20.3724   11.5481   10.4444 O   0  0  0  0  0  0  0  0  0  0  0  0
   15.9263   10.6376   12.2289 C   0  0  0  0  0  0  0  0  0  0  0  0
  1  2  1  0
  2  3  2  0
  3  4  1  0
  4  5  1  0
  4  6  2  0
  6  7  1  0
  6  8  1  0
  8  9  1  0
  9 10  1  0
 10 11  2  0
 12 10  1  6
 12 13  1  0
 13 14  1  0
  8 15  2  0
 15  2  1  0
 14 12  1  0
M  END
>  <ref_pdb>  (258) 
c0270a

>  <inchikey>  (258) 
AAFUEJKMNBWZKX-VIFPVBQESA-N

>  <original ID>  (258) 
AAFUEJKMNBWZKX-VIFPVBQESA-N

>  <generation_date>  (258) 
None

>  <alias>  (258) 
None

>  <tags>  (258) 
[]

>  <ref_mols>  (258) 
c0692a,c1116a

>  <ref_url>  (258) 
None

>  <submitter_name>  (258) 
None

>  <exports>  (258) 
nan

>  <original SMILES>  (258) 
Cc1cc(C)c(N)c(NC(=O)[C@@H]2CO2)c1

>  <method>  (258) 
None

>  <submitter_email>  (258) 
None

>  <HIPPO ID>  (258) 
111674

$$$$
AAFUEJKMNBWZKX-SECBINFHSA-N
     RDKit          3D

 15 16  0  0  0  0  0  0  0  0999 V2000
   14.4309    9.8547   14.0258 C   0  0  0  0  0  0  0  0  0  0  0  0
   15.0010    9.6067   12.6765 C   0  0  0  0  0  0  0  0  0  0  0  0
   14.5725    8.5762   11.8458 C   0  0  0  0  0  0  0  0  0  0  0  0
   14.8638    8.6148   10.4848 C   0  0  0  0  0  0  0  0  0  0  0  0
   14.1104    7.7019    9.5645 C   0  0  0  0  0  0  0  0  0  0  0  0
   15.8107    9.5345   10.0223 C   0  0  0  0  0  0  0  0  0  0  0  0
   16.2073    9.4742    8.6832 N   0  0  0  0  0  0  0  0  0  0  0  0
   16.4522   10.3911   10.9373 C   0  0  0  0  0  0  0  0  0  0  0  0
   17.6309   11.0591   10.5610 N   0  0  0  0  0  0  0  0  0  0  0  0
   18.3053   12.0212   11.2873 C   0  0  0  0  0  0  0  0  0  0  0  0
   17.8789   12.6404   12.2530 O   0  0  0  0  0  0  0  0  0  0  0  0
   19.6479   12.3590   10.7564 C   0  0  1  0  0  0  0  0  0  0  0  0
   20.9668   11.8809   11.3030 C   0  0  0  0  0  0  0  0  0  0  0  0
   20.3411   11.2253   10.2037 O   0  0  0  0  0  0  0  0  0  0  0  0
   15.9535   10.5017   12.2215 C   0  0  0  0  0  0  0  0  0  0  0  0
  1  2  1  0
  2  3  2  0
  3  4  1  0
  4  5  1  0
  4  6  2  0
  6  7  1  0
  6  8  1  0
  8  9  1  0
  9 10  1  0
 10 11  2  0
 12 10  1  1
 12 13  1  0
 13 14  1  0
  8 15  2  0
 15  2  1  0
 14 12  1  0
M  END
>  <ref_pdb>  (259) 
c0270a

>  <inchikey>  (259) 
AAFUEJKMNBWZKX-SECBINFHSA-N

>  <original ID>  (259) 
AAFUEJKMNBWZKX-SECBINFHSA-N

>  <generation_date>  (259) 
None

>  <alias>  (259) 
None

>  <tags>  (259) 
[]

>  <ref_mols>  (259) 
c0692a,c1116a

>  <ref_url>  (259) 
None

>  <submitter_name>  (259) 
None

>  <exports>  (259) 
nan

>  <original SMILES>  (259) 
Cc1cc(C)c(N)c(NC(=O)[C@H]2CO2)c1

>  <method>  (259) 
None

>  <submitter_email>  (259) 
None

>  <HIPPO ID>  (259) 
111675

$$$$
HBQBWIYUUFLBEN-QMMMGPOBSA-N
     RDKit          3D

 15 16  0  0  0  0  0  0  0  0999 V2000
   15.8887   11.4024   13.3387 C   0  0  0  0  0  0  0  0  0  0  0  0
   15.7043   10.3872   12.2581 C   0  0  0  0  0  0  0  0  0  0  0  0
   14.7972    9.3664   12.5339 C   0  0  0  0  0  0  0  0  0  0  0  0
   14.0866    9.4606   13.6593 F   0  0  0  0  0  0  0  0  0  0  0  0
   14.5485    8.2995   11.6801 C   0  0  0  0  0  0  0  0  0  0  0  0
   15.0774    8.3415   10.4146 C   0  0  0  0  0  0  0  0  0  0  0  0
   15.9645    9.3648   10.0809 C   0  0  0  0  0  0  0  0  0  0  0  0
   16.2869    9.4738    8.7408 N   0  0  0  0  0  0  0  0  0  0  0  0
   16.3590   10.3496   11.0256 C   0  0  0  0  0  0  0  0  0  0  0  0
   17.5368   11.0909   10.7237 N   0  0  0  0  0  0  0  0  0  0  0  0
   18.0100   12.2353   11.3307 C   0  0  0  0  0  0  0  0  0  0  0  0
   17.3206   13.1393   11.7827 O   0  0  0  0  0  0  0  0  0  0  0  0
   19.4842   12.3219   11.5062 C   0  0  2  0  0  0  0  0  0  0  0  0
   20.4920   12.9294   10.5935 C   0  0  0  0  0  0  0  0  0  0  0  0
   20.2348   11.5216   10.5800 O   0  0  0  0  0  0  0  0  0  0  0  0
  1  2  1  0
  2  3  2  0
  3  4  1  0
  3  5  1  0
  5  6  2  0
  6  7  1  0
  7  8  1  0
  7  9  2  0
  9 10  1  0
 10 11  1  0
 11 12  2  0
 13 11  1  6
 13 14  1  0
 14 15  1  0
  9  2  1  0
 15 13  1  0
M  END
>  <ref_pdb>  (260) 
c0270a

>  <inchikey>  (260) 
HBQBWIYUUFLBEN-QMMMGPOBSA-N

>  <original ID>  (260) 
HBQBWIYUUFLBEN-QMMMGPOBSA-N

>  <generation_date>  (260) 
None

>  <alias>  (260) 
None

>  <tags>  (260) 
[]

>  <ref_mols>  (260) 
c0692a,c1116a

>  <ref_url>  (260) 
None

>  <submitter_name>  (260) 
None

>  <exports>  (260) 
['/opt/xchem-fragalysis-2/maxwin/CHIKV_HIPPO/hippo_prod/CHIKV_prod11_recipes/Recipe_1GERJCJ_poses.sdf']

>  <original SMILES>  (260) 
Cc1c(F)ccc(N)c1NC(=O)[C@@H]1CO1

>  <method>  (260) 
None

>  <submitter_email>  (260) 
None

>  <HIPPO ID>  (260) 
111682

$$$$
HBQBWIYUUFLBEN-MRVPVSSYSA-N
     RDKit          3D

 15 16  0  0  0  0  0  0  0  0999 V2000
   15.7356   11.3561   13.2697 C   0  0  0  0  0  0  0  0  0  0  0  0
   15.6333   10.3271   12.1925 C   0  0  0  0  0  0  0  0  0  0  0  0
   14.7906    9.2512   12.4646 C   0  0  0  0  0  0  0  0  0  0  0  0
   14.1349    9.2617   13.6259 F   0  0  0  0  0  0  0  0  0  0  0  0
   14.5374    8.2198   11.5702 C   0  0  0  0  0  0  0  0  0  0  0  0
   15.0063    8.3478   10.2858 C   0  0  0  0  0  0  0  0  0  0  0  0
   15.8196    9.4321    9.9632 C   0  0  0  0  0  0  0  0  0  0  0  0
   16.2765    9.4814    8.6482 N   0  0  0  0  0  0  0  0  0  0  0  0
   16.2887   10.3243   10.9651 C   0  0  0  0  0  0  0  0  0  0  0  0
   17.4558   11.0570   10.6343 N   0  0  0  0  0  0  0  0  0  0  0  0
   18.1840   11.9847   11.3471 C   0  0  0  0  0  0  0  0  0  0  0  0
   17.8444   12.6087   12.3376 O   0  0  0  0  0  0  0  0  0  0  0  0
   19.5106   12.3023   10.7571 C   0  0  1  0  0  0  0  0  0  0  0  0
   20.8511   11.7960   11.2227 C   0  0  0  0  0  0  0  0  0  0  0  0
   20.1509   11.1652   10.1547 O   0  0  0  0  0  0  0  0  0  0  0  0
  1  2  1  0
  2  3  2  0
  3  4  1  0
  3  5  1  0
  5  6  2  0
  6  7  1  0
  7  8  1  0
  7  9  2  0
  9 10  1  0
 10 11  1  0
 11 12  2  0
 13 11  1  1
 13 14  1  0
 14 15  1  0
  9  2  1  0
 15 13  1  0
M  END
>  <ref_pdb>  (261) 
c0270a

>  <inchikey>  (261) 
HBQBWIYUUFLBEN-MRVPVSSYSA-N

>  <original ID>  (261) 
HBQBWIYUUFLBEN-MRVPVSSYSA-N

>  <generation_date>  (261) 
None

>  <alias>  (261) 
None

>  <tags>  (261) 
[]

>  <ref_mols>  (261) 
c0692a,c1116a

>  <ref_url>  (261) 
None

>  <submitter_name>  (261) 
None

>  <exports>  (261) 
['/opt/xchem-fragalysis-2/maxwin/CHIKV_HIPPO/hippo_prod/CHIKV_prod11_recipes/Recipe_1GERJCJ_poses.sdf']

>  <original SMILES>  (261) 
Cc1c(F)ccc(N)c1NC(=O)[C@H]1CO1

>  <method>  (261) 
None

>  <submitter_email>  (261) 
None

>  <HIPPO ID>  (261) 
111683

$$$$
USGUECJGCUCGJG-VIFPVBQESA-N
     RDKit          3D

 15 16  0  0  0  0  0  0  0  0999 V2000
   13.3298    9.2526    9.0902 C   0  0  0  0  0  0  0  0  0  0  0  0
   14.4159    9.9766    9.8314 C   0  0  0  0  0  0  0  0  0  0  0  0
   15.6849    9.4789    9.6547 C   0  0  0  0  0  0  0  0  0  0  0  0
   16.7218   10.1510   10.2557 C   0  0  0  0  0  0  0  0  0  0  0  0
   18.0471    9.9405    9.8890 N   0  0  0  0  0  0  0  0  0  0  0  0
   16.5317   11.1432   11.2134 C   0  0  0  0  0  0  0  0  0  0  0  0
   17.7351   11.6110   11.7270 N   0  0  0  0  0  0  0  0  0  0  0  0
   18.0704   12.8904   12.0269 C   0  0  0  0  0  0  0  0  0  0  0  0
   17.3010   13.8209   12.1982 O   0  0  0  0  0  0  0  0  0  0  0  0
   19.5493   13.0632   12.1266 C   0  0  2  0  0  0  0  0  0  0  0  0
   20.4409   13.4485   10.9799 C   0  0  0  0  0  0  0  0  0  0  0  0
   20.2881   12.0812   11.3453 O   0  0  0  0  0  0  0  0  0  0  0  0
   15.2912   11.6479   11.4353 C   0  0  0  0  0  0  0  0  0  0  0  0
   14.2673   11.1047   10.6805 C   0  0  0  0  0  0  0  0  0  0  0  0
   13.1180   11.7752   10.7611 F   0  0  0  0  0  0  0  0  0  0  0  0
  1  2  1  0
  2  3  2  0
  3  4  1  0
  4  5  1  0
  4  6  2  0
  6  7  1  0
  7  8  1  0
  8  9  2  0
 10  8  1  6
 10 11  1  0
 11 12  1  0
  6 13  1  0
 13 14  2  0
 14 15  1  0
 14  2  1  0
 12 10  1  0
M  END
>  <ref_pdb>  (262) 
c0270a

>  <inchikey>  (262) 
USGUECJGCUCGJG-VIFPVBQESA-N

>  <original ID>  (262) 
USGUECJGCUCGJG-VIFPVBQESA-N

>  <generation_date>  (262) 
None

>  <alias>  (262) 
None

>  <tags>  (262) 
[]

>  <ref_mols>  (262) 
c0692a,c1116a

>  <ref_url>  (262) 
None

>  <submitter_name>  (262) 
None

>  <exports>  (262) 
nan

>  <original SMILES>  (262) 
Cc1cc(N)c(NC(=O)[C@@H]2CO2)cc1F

>  <method>  (262) 
None

>  <submitter_email>  (262) 
None

>  <HIPPO ID>  (262) 
111735

$$$$
USGUECJGCUCGJG-SECBINFHSA-N
     RDKit          3D

 15 16  0  0  0  0  0  0  0  0999 V2000
   13.3553    9.2470    9.0960 C   0  0  0  0  0  0  0  0  0  0  0  0
   14.4390    9.9282    9.8802 C   0  0  0  0  0  0  0  0  0  0  0  0
   15.7038    9.4158    9.7161 C   0  0  0  0  0  0  0  0  0  0  0  0
   16.7375   10.0305   10.3843 C   0  0  0  0  0  0  0  0  0  0  0  0
   18.0379   10.0460    9.8522 N   0  0  0  0  0  0  0  0  0  0  0  0
   16.5453   11.0606   11.3099 C   0  0  0  0  0  0  0  0  0  0  0  0
   17.7672   11.6259   11.6872 N   0  0  0  0  0  0  0  0  0  0  0  0
   18.0099   12.9100   12.0464 C   0  0  0  0  0  0  0  0  0  0  0  0
   17.1681   13.6963   12.4560 O   0  0  0  0  0  0  0  0  0  0  0  0
   19.4220   13.3591   11.8481 C   0  0  1  0  0  0  0  0  0  0  0  0
   20.6307   12.4869   11.5521 C   0  0  0  0  0  0  0  0  0  0  0  0
   19.9021   13.1192   10.5064 O   0  0  0  0  0  0  0  0  0  0  0  0
   15.3015   11.5559   11.5386 C   0  0  0  0  0  0  0  0  0  0  0  0
   14.2903   11.0419   10.7473 C   0  0  0  0  0  0  0  0  0  0  0  0
   13.1623   11.7541   10.7745 F   0  0  0  0  0  0  0  0  0  0  0  0
  1  2  1  0
  2  3  2  0
  3  4  1  0
  4  5  1  0
  4  6  2  0
  6  7  1  0
  7  8  1  0
  8  9  2  0
 10  8  1  6
 10 11  1  0
 11 12  1  0
  6 13  1  0
 13 14  2  0
 14 15  1  0
 14  2  1  0
 12 10  1  0
M  END
>  <ref_pdb>  (263) 
c0270a

>  <inchikey>  (263) 
USGUECJGCUCGJG-SECBINFHSA-N

>  <original ID>  (263) 
USGUECJGCUCGJG-SECBINFHSA-N

>  <generation_date>  (263) 
None

>  <alias>  (263) 
None

>  <tags>  (263) 
[]

>  <ref_mols>  (263) 
c0692a,c1116a

>  <ref_url>  (263) 
None

>  <submitter_name>  (263) 
None

>  <exports>  (263) 
nan

>  <original SMILES>  (263) 
Cc1cc(N)c(NC(=O)[C@H]2CO2)cc1F

>  <method>  (263) 
None

>  <submitter_email>  (263) 
None

>  <HIPPO ID>  (263) 
111736

$$$$
CHCZGFAWISZDRE-VIFPVBQESA-N
     RDKit          3D

 15 16  0  0  0  0  0  0  0  0999 V2000
   14.3264    9.6846   13.8973 C   0  0  0  0  0  0  0  0  0  0  0  0
   14.9289    9.4949   12.5538 C   0  0  0  0  0  0  0  0  0  0  0  0
   15.8630   10.4501   12.1599 C   0  0  0  0  0  0  0  0  0  0  0  0
   16.4487   10.3780   10.9080 C   0  0  0  0  0  0  0  0  0  0  0  0
   17.6213   11.1205   10.6254 N   0  0  0  0  0  0  0  0  0  0  0  0
   18.0905   12.1867   11.3739 C   0  0  0  0  0  0  0  0  0  0  0  0
   17.3828   12.9666   12.0018 O   0  0  0  0  0  0  0  0  0  0  0  0
   19.5676   12.3174   11.4966 C   0  0  2  0  0  0  0  0  0  0  0  0
   20.5225   12.9815   10.5680 C   0  0  0  0  0  0  0  0  0  0  0  0
   20.3053   11.5672   10.5197 O   0  0  0  0  0  0  0  0  0  0  0  0
   15.9784    9.4147    9.9971 C   0  0  0  0  0  0  0  0  0  0  0  0
   16.2726    9.4735    8.6508 N   0  0  0  0  0  0  0  0  0  0  0  0
   15.0523    8.4546   10.3866 C   0  0  0  0  0  0  0  0  0  0  0  0
   14.5766    8.4668   11.6757 C   0  0  0  0  0  0  0  0  0  0  0  0
   13.6851    7.5241   12.0147 F   0  0  0  0  0  0  0  0  0  0  0  0
  1  2  1  0
  2  3  2  0
  3  4  1  0
  4  5  1  0
  5  6  1  0
  6  7  2  0
  8  6  1  6
  8  9  1  0
  9 10  1  0
  4 11  2  0
 11 12  1  0
 11 13  1  0
 13 14  2  0
 14 15  1  0
 14  2  1  0
 10  8  1  0
M  END
>  <ref_pdb>  (264) 
c0270a

>  <inchikey>  (264) 
CHCZGFAWISZDRE-VIFPVBQESA-N

>  <original ID>  (264) 
CHCZGFAWISZDRE-VIFPVBQESA-N

>  <generation_date>  (264) 
None

>  <alias>  (264) 
None

>  <tags>  (264) 
[]

>  <ref_mols>  (264) 
c0692a,c1116a

>  <ref_url>  (264) 
None

>  <submitter_name>  (264) 
None

>  <exports>  (264) 
nan

>  <original SMILES>  (264) 
Cc1cc(NC(=O)[C@@H]2CO2)c(N)cc1F

>  <method>  (264) 
None

>  <submitter_email>  (264) 
None

>  <HIPPO ID>  (264) 
111737

$$$$
CHCZGFAWISZDRE-SECBINFHSA-N
     RDKit          3D

 15 16  0  0  0  0  0  0  0  0999 V2000
   14.3563    9.4186   13.8563 C   0  0  0  0  0  0  0  0  0  0  0  0
   14.9222    9.3071   12.4877 C   0  0  0  0  0  0  0  0  0  0  0  0
   15.8775   10.2559   12.1395 C   0  0  0  0  0  0  0  0  0  0  0  0
   16.4145   10.2599   10.8670 C   0  0  0  0  0  0  0  0  0  0  0  0
   17.5648   11.0052   10.5557 N   0  0  0  0  0  0  0  0  0  0  0  0
   18.1927   11.9504   11.3411 C   0  0  0  0  0  0  0  0  0  0  0  0
   17.7400   12.4826   12.3459 O   0  0  0  0  0  0  0  0  0  0  0  0
   19.5162   12.3838   10.8264 C   0  0  1  0  0  0  0  0  0  0  0  0
   20.8676   11.9364   11.3220 C   0  0  0  0  0  0  0  0  0  0  0  0
   20.2508   11.3156   10.1997 O   0  0  0  0  0  0  0  0  0  0  0  0
   15.8557    9.4208    9.8867 C   0  0  0  0  0  0  0  0  0  0  0  0
   16.2877    9.4367    8.5664 N   0  0  0  0  0  0  0  0  0  0  0  0
   14.9580    8.4250   10.2437 C   0  0  0  0  0  0  0  0  0  0  0  0
   14.5175    8.3563   11.5462 C   0  0  0  0  0  0  0  0  0  0  0  0
   13.6148    7.4123   11.8509 F   0  0  0  0  0  0  0  0  0  0  0  0
  1  2  1  0
  2  3  2  0
  3  4  1  0
  4  5  1  0
  5  6  1  0
  6  7  2  0
  8  6  1  1
  8  9  1  0
  9 10  1  0
  4 11  2  0
 11 12  1  0
 11 13  1  0
 13 14  2  0
 14 15  1  0
 14  2  1  0
 10  8  1  0
M  END
>  <ref_pdb>  (265) 
c0270a

>  <inchikey>  (265) 
CHCZGFAWISZDRE-SECBINFHSA-N

>  <original ID>  (265) 
CHCZGFAWISZDRE-SECBINFHSA-N

>  <generation_date>  (265) 
None

>  <alias>  (265) 
None

>  <tags>  (265) 
[]

>  <ref_mols>  (265) 
c0692a,c1116a

>  <ref_url>  (265) 
None

>  <submitter_name>  (265) 
None

>  <exports>  (265) 
nan

>  <original SMILES>  (265) 
Cc1cc(NC(=O)[C@H]2CO2)c(N)cc1F

>  <method>  (265) 
None

>  <submitter_email>  (265) 
None

>  <HIPPO ID>  (265) 
111738

$$$$
CUPDSSDDLVQSFN-LURJTMIESA-N
     RDKit          3D

 15 16  0  0  0  0  0  0  0  0999 V2000
   16.1470   11.2797   13.1134 N   0  0  0  0  0  0  0  0  0  0  0  0
   15.7970   10.4520   12.0191 C   0  0  0  0  0  0  0  0  0  0  0  0
   14.8460    9.4603   12.2663 C   0  0  0  0  0  0  0  0  0  0  0  0
   14.1666    9.5586   13.4125 F   0  0  0  0  0  0  0  0  0  0  0  0
   14.5361    8.4442   11.3670 C   0  0  0  0  0  0  0  0  0  0  0  0
   15.0940    8.4861   10.1123 C   0  0  0  0  0  0  0  0  0  0  0  0
   16.0757    9.4329    9.8566 C   0  0  0  0  0  0  0  0  0  0  0  0
   16.6222    9.3898    8.6431 F   0  0  0  0  0  0  0  0  0  0  0  0
   16.5123   10.3669   10.8198 C   0  0  0  0  0  0  0  0  0  0  0  0
   17.7342   11.0538   10.5911 N   0  0  0  0  0  0  0  0  0  0  0  0
   18.1979   12.1669   11.2643 C   0  0  0  0  0  0  0  0  0  0  0  0
   17.4831   13.0217   11.7812 O   0  0  0  0  0  0  0  0  0  0  0  0
   19.6695   12.2740   11.4356 C   0  0  2  0  0  0  0  0  0  0  0  0
   20.6399   12.9625   10.5398 C   0  0  0  0  0  0  0  0  0  0  0  0
   20.4328   11.5460   10.4660 O   0  0  0  0  0  0  0  0  0  0  0  0
  1  2  1  0
  2  3  2  0
  3  4  1  0
  3  5  1  0
  5  6  2  0
  6  7  1  0
  7  8  1  0
  7  9  2  0
  9 10  1  0
 10 11  1  0
 11 12  2  0
 13 11  1  6
 13 14  1  0
 14 15  1  0
  9  2  1  0
 15 13  1  0
M  END
>  <ref_pdb>  (266) 
c0270a

>  <inchikey>  (266) 
CUPDSSDDLVQSFN-LURJTMIESA-N

>  <original ID>  (266) 
CUPDSSDDLVQSFN-LURJTMIESA-N

>  <generation_date>  (266) 
None

>  <alias>  (266) 
None

>  <tags>  (266) 
[]

>  <ref_mols>  (266) 
c0692a,c1116a

>  <ref_url>  (266) 
None

>  <submitter_name>  (266) 
None

>  <exports>  (266) 
nan

>  <original SMILES>  (266) 
Nc1c(F)ccc(F)c1NC(=O)[C@@H]1CO1

>  <method>  (266) 
None

>  <submitter_email>  (266) 
None

>  <HIPPO ID>  (266) 
111754

$$$$
CUPDSSDDLVQSFN-ZCFIWIBFSA-N
     RDKit          3D

 15 16  0  0  0  0  0  0  0  0999 V2000
   16.2565   10.9469   13.1954 N   0  0  0  0  0  0  0  0  0  0  0  0
   15.8244   10.2252   12.0618 C   0  0  0  0  0  0  0  0  0  0  0  0
   14.8442    9.2561   12.2805 C   0  0  0  0  0  0  0  0  0  0  0  0
   14.1963    9.3176   13.4474 F   0  0  0  0  0  0  0  0  0  0  0  0
   14.4716    8.3029   11.3368 C   0  0  0  0  0  0  0  0  0  0  0  0
   14.9885    8.3983   10.0670 C   0  0  0  0  0  0  0  0  0  0  0  0
   15.9800    9.3377    9.8288 C   0  0  0  0  0  0  0  0  0  0  0  0
   16.4927    9.3637    8.5983 F   0  0  0  0  0  0  0  0  0  0  0  0
   16.4771   10.2014   10.8282 C   0  0  0  0  0  0  0  0  0  0  0  0
   17.6673   10.9042   10.5290 N   0  0  0  0  0  0  0  0  0  0  0  0
   18.2524   11.9560   11.2008 C   0  0  0  0  0  0  0  0  0  0  0  0
   17.7183   12.6594   12.0512 O   0  0  0  0  0  0  0  0  0  0  0  0
   19.6141   12.3181   10.7307 C   0  0  1  0  0  0  0  0  0  0  0  0
   20.9277   11.8650   11.3099 C   0  0  0  0  0  0  0  0  0  0  0  0
   20.3473   11.2041   10.1908 O   0  0  0  0  0  0  0  0  0  0  0  0
  1  2  1  0
  2  3  2  0
  3  4  1  0
  3  5  1  0
  5  6  2  0
  6  7  1  0
  7  8  1  0
  7  9  2  0
  9 10  1  0
 10 11  1  0
 11 12  2  0
 13 11  1  1
 13 14  1  0
 14 15  1  0
  9  2  1  0
 15 13  1  0
M  END
>  <ref_pdb>  (267) 
c0270a

>  <inchikey>  (267) 
CUPDSSDDLVQSFN-ZCFIWIBFSA-N

>  <original ID>  (267) 
CUPDSSDDLVQSFN-ZCFIWIBFSA-N

>  <generation_date>  (267) 
None

>  <alias>  (267) 
None

>  <tags>  (267) 
[]

>  <ref_mols>  (267) 
c0692a,c1116a

>  <ref_url>  (267) 
None

>  <submitter_name>  (267) 
None

>  <exports>  (267) 
nan

>  <original SMILES>  (267) 
Nc1c(F)ccc(F)c1NC(=O)[C@H]1CO1

>  <method>  (267) 
None

>  <submitter_email>  (267) 
None

>  <HIPPO ID>  (267) 
111755

$$$$
CMZBCCAPKWLNQV-UHFFFAOYSA-N
     RDKit          3D

 16 16  0  0  0  0  0  0  0  0999 V2000
   16.2169    9.4538    8.6232 N   0  0  0  0  0  0  0  0  0  0  0  0
   15.8023    9.4262    9.9502 C   0  0  0  0  0  0  0  0  0  0  0  0
   14.9785    8.3757   10.3536 C   0  0  0  0  0  0  0  0  0  0  0  0
   14.5786    8.2816   11.6789 C   0  0  0  0  0  0  0  0  0  0  0  0
   14.9467    9.2891   12.5640 C   0  0  0  0  0  0  0  0  0  0  0  0
   14.3137    9.3780   14.3204 Br  0  0  0  0  0  0  0  0  0  0  0  0
   15.8144   10.2944   12.1913 C   0  0  0  0  0  0  0  0  0  0  0  0
   16.3252   10.3081   10.9083 C   0  0  0  0  0  0  0  0  0  0  0  0
   17.4484   11.0967   10.6036 N   0  0  0  0  0  0  0  0  0  0  0  0
   17.9290   12.1348   11.3757 C   0  0  0  0  0  0  0  0  0  0  0  0
   17.2628   12.7834   12.1818 O   0  0  0  0  0  0  0  0  0  0  0  0
   19.3956   12.4783   11.1485 C   0  0  0  0  0  0  0  0  0  0  0  0
   20.1241   11.3925   10.5944 O   0  0  0  0  0  0  0  0  0  0  0  0
   21.5074   11.7063   10.4235 C   0  0  0  0  0  0  0  0  0  0  0  0
   22.3119   11.6387   11.7160 C   0  0  0  0  0  0  0  0  0  0  0  0
   23.6670   11.9946   11.4746 O   0  0  0  0  0  0  0  0  0  0  0  0
  1  2  1  0
  2  3  2  0
  3  4  1  0
  4  5  2  0
  5  6  1  0
  5  7  1  0
  7  8  2  0
  8  9  1  0
  9 10  1  0
 10 11  2  0
 10 12  1  0
 12 13  1  0
 13 14  1  0
 14 15  1  0
 15 16  1  0
  8  2  1  0
M  END
>  <ref_pdb>  (268) 
c0270a

>  <inchikey>  (268) 
CMZBCCAPKWLNQV-UHFFFAOYSA-N

>  <original ID>  (268) 
CMZBCCAPKWLNQV-UHFFFAOYSA-N

>  <generation_date>  (268) 
None

>  <alias>  (268) 
None

>  <tags>  (268) 
[]

>  <ref_mols>  (268) 
c0692a,c1116a

>  <ref_url>  (268) 
None

>  <submitter_name>  (268) 
None

>  <exports>  (268) 
nan

>  <original SMILES>  (268) 
Nc1ccc(Br)cc1NC(=O)COCCO

>  <method>  (268) 
None

>  <submitter_email>  (268) 
None

>  <HIPPO ID>  (268) 
111866

$$$$
JDTXKENCTSBGRX-UHFFFAOYSA-N
     RDKit          3D

 16 16  0  0  0  0  0  0  0  0999 V2000
   16.2252   11.1651   13.2165 N   0  0  0  0  0  0  0  0  0  0  0  0
   15.8171   10.3895   12.1109 C   0  0  0  0  0  0  0  0  0  0  0  0
   14.8733    9.3900   12.3242 C   0  0  0  0  0  0  0  0  0  0  0  0
   14.1627    9.4364   13.4893 O   0  0  0  0  0  0  0  0  0  0  0  0
   14.5730    8.4087   11.3826 C   0  0  0  0  0  0  0  0  0  0  0  0
   15.1421    8.4864   10.1258 C   0  0  0  0  0  0  0  0  0  0  0  0
   16.1129    9.4521    9.8856 C   0  0  0  0  0  0  0  0  0  0  0  0
   16.4983   10.3609   10.8865 C   0  0  0  0  0  0  0  0  0  0  0  0
   17.6650   11.1013   10.6389 N   0  0  0  0  0  0  0  0  0  0  0  0
   18.0802   12.2467   11.2753 C   0  0  0  0  0  0  0  0  0  0  0  0
   17.3507   13.0233   11.8950 O   0  0  0  0  0  0  0  0  0  0  0  0
   19.5666   12.5316   11.1310 C   0  0  0  0  0  0  0  0  0  0  0  0
   20.2514   11.4344   10.5413 O   0  0  0  0  0  0  0  0  0  0  0  0
   21.6486   11.6861   10.4031 C   0  0  0  0  0  0  0  0  0  0  0  0
   22.4164   11.5034   11.7069 C   0  0  0  0  0  0  0  0  0  0  0  0
   23.8016   11.7649   11.5180 O   0  0  0  0  0  0  0  0  0  0  0  0
  1  2  1  0
  2  3  2  0
  3  4  1  0
  3  5  1  0
  5  6  2  0
  6  7  1  0
  7  8  2  0
  8  9  1  0
  9 10  1  0
 10 11  2  0
 10 12  1  0
 12 13  1  0
 13 14  1  0
 14 15  1  0
 15 16  1  0
  8  2  1  0
M  END
>  <ref_pdb>  (269) 
c0270a

>  <inchikey>  (269) 
JDTXKENCTSBGRX-UHFFFAOYSA-N

>  <original ID>  (269) 
JDTXKENCTSBGRX-UHFFFAOYSA-N

>  <generation_date>  (269) 
None

>  <alias>  (269) 
None

>  <tags>  (269) 
[]

>  <ref_mols>  (269) 
c0692a,c1116a

>  <ref_url>  (269) 
None

>  <submitter_name>  (269) 
None

>  <exports>  (269) 
nan

>  <original SMILES>  (269) 
Nc1c(O)cccc1NC(=O)COCCO

>  <method>  (269) 
None

>  <submitter_email>  (269) 
None

>  <HIPPO ID>  (269) 
111871

$$$$
ZDVUJSLCWLRJJF-UHFFFAOYSA-N
     RDKit          3D

 16 16  0  0  0  0  0  0  0  0999 V2000
   16.2703    9.4585    8.6251 N   0  0  0  0  0  0  0  0  0  0  0  0
   15.8063    9.3996    9.9327 C   0  0  0  0  0  0  0  0  0  0  0  0
   14.9834    8.3261   10.2736 C   0  0  0  0  0  0  0  0  0  0  0  0
   14.5049    8.2131   11.5660 C   0  0  0  0  0  0  0  0  0  0  0  0
   14.7948    9.2250   12.4717 C   0  0  0  0  0  0  0  0  0  0  0  0
   14.1770    9.2858   13.6490 F   0  0  0  0  0  0  0  0  0  0  0  0
   15.6743   10.2396   12.1807 C   0  0  0  0  0  0  0  0  0  0  0  0
   16.2589   10.2812   10.9287 C   0  0  0  0  0  0  0  0  0  0  0  0
   17.3594   11.1219   10.6821 N   0  0  0  0  0  0  0  0  0  0  0  0
   17.7304   12.1865   11.4749 C   0  0  0  0  0  0  0  0  0  0  0  0
   16.9879   12.7749   12.2610 O   0  0  0  0  0  0  0  0  0  0  0  0
   19.1650   12.6529   11.3105 C   0  0  0  0  0  0  0  0  0  0  0  0
   20.0370   11.6611   10.7988 O   0  0  0  0  0  0  0  0  0  0  0  0
   21.3815   11.9775   11.1955 C   0  0  0  0  0  0  0  0  0  0  0  0
   22.3737   11.2133   10.3508 C   0  0  0  0  0  0  0  0  0  0  0  0
   22.4494   11.8362    9.0872 O   0  0  0  0  0  0  0  0  0  0  0  0
  1  2  1  0
  2  3  2  0
  3  4  1  0
  4  5  2  0
  5  6  1  0
  5  7  1  0
  7  8  2  0
  8  9  1  0
  9 10  1  0
 10 11  2  0
 10 12  1  0
 12 13  1  0
 13 14  1  0
 14 15  1  0
 15 16  1  0
  8  2  1  0
M  END
>  <ref_pdb>  (270) 
c0270a

>  <inchikey>  (270) 
ZDVUJSLCWLRJJF-UHFFFAOYSA-N

>  <original ID>  (270) 
ZDVUJSLCWLRJJF-UHFFFAOYSA-N

>  <generation_date>  (270) 
None

>  <alias>  (270) 
None

>  <tags>  (270) 
[]

>  <ref_mols>  (270) 
c0692a,c1116a

>  <ref_url>  (270) 
None

>  <submitter_name>  (270) 
None

>  <exports>  (270) 
nan

>  <original SMILES>  (270) 
Nc1ccc(F)cc1NC(=O)COCCO

>  <method>  (270) 
None

>  <submitter_email>  (270) 
None

>  <HIPPO ID>  (270) 
111872

$$$$
RJUBONUMJUCCHC-UHFFFAOYSA-N
     RDKit          3D

 16 16  0  0  0  0  0  0  0  0999 V2000
   16.2939    9.2963    8.8241 N   0  0  0  0  0  0  0  0  0  0  0  0
   15.8014    9.3503   10.1129 C   0  0  0  0  0  0  0  0  0  0  0  0
   14.9713    8.3079   10.5365 C   0  0  0  0  0  0  0  0  0  0  0  0
   14.5524    8.2475   11.8548 C   0  0  0  0  0  0  0  0  0  0  0  0
   14.8935    9.2864   12.7101 C   0  0  0  0  0  0  0  0  0  0  0  0
   14.2461    9.4006   14.4566 Br  0  0  0  0  0  0  0  0  0  0  0  0
   15.7428   10.2988   12.3163 C   0  0  0  0  0  0  0  0  0  0  0  0
   16.2797   10.2806   11.0435 C   0  0  0  0  0  0  0  0  0  0  0  0
   17.3870   11.0882   10.7274 N   0  0  0  0  0  0  0  0  0  0  0  0
   17.8306   12.1486   11.4850 C   0  0  0  0  0  0  0  0  0  0  0  0
   17.1502   12.7826   12.2917 O   0  0  0  0  0  0  0  0  0  0  0  0
   19.2843   12.5332   11.2772 C   0  0  0  0  0  0  0  0  0  0  0  0
   19.9989   11.6694   10.4177 O   0  0  0  0  0  0  0  0  0  0  0  0
   21.4255   11.7234   10.5634 C   0  0  0  0  0  0  0  0  0  0  0  0
   22.0603   13.1022   10.7910 C   0  0  0  0  0  0  0  0  0  0  0  0
   21.5056   14.3504    9.6397 Cl  0  0  0  0  0  0  0  0  0  0  0  0
  1  2  1  0
  2  3  2  0
  3  4  1  0
  4  5  2  0
  5  6  1  0
  5  7  1  0
  7  8  2  0
  8  9  1  0
  9 10  1  0
 10 11  2  0
 10 12  1  0
 12 13  1  0
 13 14  1  0
 14 15  1  0
 15 16  1  0
  8  2  1  0
M  END
>  <ref_pdb>  (271) 
c0270a

>  <inchikey>  (271) 
RJUBONUMJUCCHC-UHFFFAOYSA-N

>  <original ID>  (271) 
RJUBONUMJUCCHC-UHFFFAOYSA-N

>  <generation_date>  (271) 
None

>  <alias>  (271) 
None

>  <tags>  (271) 
[]

>  <ref_mols>  (271) 
c0692a,c1116a

>  <ref_url>  (271) 
None

>  <submitter_name>  (271) 
None

>  <exports>  (271) 
nan

>  <original SMILES>  (271) 
Nc1ccc(Br)cc1NC(=O)COCCCl

>  <method>  (271) 
None

>  <submitter_email>  (271) 
None

>  <HIPPO ID>  (271) 
111890

$$$$
IZPUJPRULKUEBO-UHFFFAOYSA-N
     RDKit          3D

 16 16  0  0  0  0  0  0  0  0999 V2000
   16.2082   11.1120   13.2267 N   0  0  0  0  0  0  0  0  0  0  0  0
   15.7945   10.3434   12.1183 C   0  0  0  0  0  0  0  0  0  0  0  0
   14.8662    9.3295   12.3302 C   0  0  0  0  0  0  0  0  0  0  0  0
   14.1728    9.3479   13.5059 O   0  0  0  0  0  0  0  0  0  0  0  0
   14.5610    8.3612   11.3771 C   0  0  0  0  0  0  0  0  0  0  0  0
   15.1147    8.4625   10.1146 C   0  0  0  0  0  0  0  0  0  0  0  0
   16.0730    9.4410    9.8750 C   0  0  0  0  0  0  0  0  0  0  0  0
   16.4575   10.3415   10.8833 C   0  0  0  0  0  0  0  0  0  0  0  0
   17.6094   11.1019   10.6339 N   0  0  0  0  0  0  0  0  0  0  0  0
   18.0113   12.2451   11.2817 C   0  0  0  0  0  0  0  0  0  0  0  0
   17.2759   13.0096   11.9088 O   0  0  0  0  0  0  0  0  0  0  0  0
   19.5016   12.5158   11.1808 C   0  0  0  0  0  0  0  0  0  0  0  0
   20.1393   11.5955   10.3148 O   0  0  0  0  0  0  0  0  0  0  0  0
   21.4949   11.2782   10.6387 C   0  0  0  0  0  0  0  0  0  0  0  0
   22.4117   12.4655   10.8838 C   0  0  0  0  0  0  0  0  0  0  0  0
   22.6232   12.7638   12.8047 Br  0  0  0  0  0  0  0  0  0  0  0  0
  1  2  1  0
  2  3  2  0
  3  4  1  0
  3  5  1  0
  5  6  2  0
  6  7  1  0
  7  8  2  0
  8  9  1  0
  9 10  1  0
 10 11  2  0
 10 12  1  0
 12 13  1  0
 13 14  1  0
 14 15  1  0
 15 16  1  0
  8  2  1  0
M  END
>  <ref_pdb>  (272) 
c0270a

>  <inchikey>  (272) 
IZPUJPRULKUEBO-UHFFFAOYSA-N

>  <original ID>  (272) 
IZPUJPRULKUEBO-UHFFFAOYSA-N

>  <generation_date>  (272) 
None

>  <alias>  (272) 
None

>  <tags>  (272) 
[]

>  <ref_mols>  (272) 
c0692a,c1116a

>  <ref_url>  (272) 
None

>  <submitter_name>  (272) 
None

>  <exports>  (272) 
nan

>  <original SMILES>  (272) 
Nc1c(O)cccc1NC(=O)COCCBr

>  <method>  (272) 
None

>  <submitter_email>  (272) 
None

>  <HIPPO ID>  (272) 
111892

$$$$
AWWVSHZULFZCTJ-UHFFFAOYSA-N
     RDKit          3D

 16 16  0  0  0  0  0  0  0  0999 V2000
   16.1892    9.4369    8.6987 N   0  0  0  0  0  0  0  0  0  0  0  0
   15.8577    9.2842   10.0319 C   0  0  0  0  0  0  0  0  0  0  0  0
   14.9917    8.2421   10.3703 C   0  0  0  0  0  0  0  0  0  0  0  0
   14.4957    8.1541   11.6581 C   0  0  0  0  0  0  0  0  0  0  0  0
   14.7701    9.1853   12.5472 C   0  0  0  0  0  0  0  0  0  0  0  0
   14.1338    9.2678   13.7135 F   0  0  0  0  0  0  0  0  0  0  0  0
   15.6329   10.2095   12.2421 C   0  0  0  0  0  0  0  0  0  0  0  0
   16.2328   10.2334   10.9971 C   0  0  0  0  0  0  0  0  0  0  0  0
   17.3083   11.1017   10.7368 N   0  0  0  0  0  0  0  0  0  0  0  0
   17.6542   12.1801   11.5160 C   0  0  0  0  0  0  0  0  0  0  0  0
   16.9126   12.7578   12.3093 O   0  0  0  0  0  0  0  0  0  0  0  0
   19.0703   12.6802   11.3269 C   0  0  0  0  0  0  0  0  0  0  0  0
   19.9837   11.7431   10.7749 O   0  0  0  0  0  0  0  0  0  0  0  0
   21.2866   12.3311   10.8347 C   0  0  0  0  0  0  0  0  0  0  0  0
   22.3693   11.3422   10.4978 C   0  0  0  0  0  0  0  0  0  0  0  0
   24.0612   12.2579   10.8146 Br  0  0  0  0  0  0  0  0  0  0  0  0
  1  2  1  0
  2  3  2  0
  3  4  1  0
  4  5  2  0
  5  6  1  0
  5  7  1  0
  7  8  2  0
  8  9  1  0
  9 10  1  0
 10 11  2  0
 10 12  1  0
 12 13  1  0
 13 14  1  0
 14 15  1  0
 15 16  1  0
  8  2  1  0
M  END
>  <ref_pdb>  (273) 
c0270a

>  <inchikey>  (273) 
AWWVSHZULFZCTJ-UHFFFAOYSA-N

>  <original ID>  (273) 
AWWVSHZULFZCTJ-UHFFFAOYSA-N

>  <generation_date>  (273) 
None

>  <alias>  (273) 
None

>  <tags>  (273) 
[]

>  <ref_mols>  (273) 
c0692a,c1116a

>  <ref_url>  (273) 
None

>  <submitter_name>  (273) 
None

>  <exports>  (273) 
['/opt/xchem-fragalysis-2/maxwin/CHIKV_HIPPO/hippo_prod/CHIKV_prod11_recipes/Recipe_1GERJCJ_poses.sdf']

>  <original SMILES>  (273) 
Nc1ccc(F)cc1NC(=O)COCCBr

>  <method>  (273) 
None

>  <submitter_email>  (273) 
None

>  <HIPPO ID>  (273) 
111893

$$$$
YMVVCTABHARGNX-UHFFFAOYSA-N
     RDKit          3D

 16 16  0  0  0  0  0  0  0  0999 V2000
   16.3083    9.3075    8.8025 N   0  0  0  0  0  0  0  0  0  0  0  0
   15.8493    9.3926   10.1005 C   0  0  0  0  0  0  0  0  0  0  0  0
   15.0064    8.3772   10.5593 C   0  0  0  0  0  0  0  0  0  0  0  0
   14.5945    8.3675   11.8797 C   0  0  0  0  0  0  0  0  0  0  0  0
   14.9508    9.4323   12.6960 C   0  0  0  0  0  0  0  0  0  0  0  0
   14.2960    9.6195   14.4314 Br  0  0  0  0  0  0  0  0  0  0  0  0
   15.8262   10.4107   12.2712 C   0  0  0  0  0  0  0  0  0  0  0  0
   16.3614   10.3355   11.0001 C   0  0  0  0  0  0  0  0  0  0  0  0
   17.4976   11.0964   10.6619 N   0  0  0  0  0  0  0  0  0  0  0  0
   17.9258   12.2107   11.3485 C   0  0  0  0  0  0  0  0  0  0  0  0
   17.2023   12.9165   12.0539 O   0  0  0  0  0  0  0  0  0  0  0  0
   19.3986   12.5707   11.1926 C   0  0  0  0  0  0  0  0  0  0  0  0
   20.2055   11.5835   10.5763 O   0  0  0  0  0  0  0  0  0  0  0  0
   21.5738   11.6892   11.0047 C   0  0  0  0  0  0  0  0  0  0  0  0
   22.5328   11.6636    9.8365 C   0  0  0  0  0  0  0  0  0  0  0  0
   22.6651   13.3926    8.9761 Br  0  0  0  0  0  0  0  0  0  0  0  0
  1  2  1  0
  2  3  2  0
  3  4  1  0
  4  5  2  0
  5  6  1  0
  5  7  1  0
  7  8  2  0
  8  9  1  0
  9 10  1  0
 10 11  2  0
 10 12  1  0
 12 13  1  0
 13 14  1  0
 14 15  1  0
 15 16  1  0
  8  2  1  0
M  END
>  <ref_pdb>  (274) 
c0270a

>  <inchikey>  (274) 
YMVVCTABHARGNX-UHFFFAOYSA-N

>  <original ID>  (274) 
YMVVCTABHARGNX-UHFFFAOYSA-N

>  <generation_date>  (274) 
None

>  <alias>  (274) 
None

>  <tags>  (274) 
[]

>  <ref_mols>  (274) 
c0692a,c1116a

>  <ref_url>  (274) 
None

>  <submitter_name>  (274) 
None

>  <exports>  (274) 
nan

>  <original SMILES>  (274) 
Nc1ccc(Br)cc1NC(=O)COCCBr

>  <method>  (274) 
None

>  <submitter_email>  (274) 
None

>  <HIPPO ID>  (274) 
111911

$$$$
RNCLVKKWQHVMFE-UHFFFAOYSA-N
     RDKit          3D

 16 16  0  0  0  0  0  0  0  0999 V2000
   16.2195    9.4490    8.7207 N   0  0  0  0  0  0  0  0  0  0  0  0
   15.9058    9.3259   10.0610 C   0  0  0  0  0  0  0  0  0  0  0  0
   15.0272    8.3016   10.4208 C   0  0  0  0  0  0  0  0  0  0  0  0
   14.5247    8.2533   11.7066 C   0  0  0  0  0  0  0  0  0  0  0  0
   14.7920    9.3135   12.5632 C   0  0  0  0  0  0  0  0  0  0  0  0
   14.1344    9.4400   13.7138 F   0  0  0  0  0  0  0  0  0  0  0  0
   15.6741   10.3173   12.2398 C   0  0  0  0  0  0  0  0  0  0  0  0
   16.2957   10.2937   11.0056 C   0  0  0  0  0  0  0  0  0  0  0  0
   17.4041   11.1216   10.7362 N   0  0  0  0  0  0  0  0  0  0  0  0
   17.8504   12.1545   11.5323 C   0  0  0  0  0  0  0  0  0  0  0  0
   17.1887   12.7373   12.3896 O   0  0  0  0  0  0  0  0  0  0  0  0
   19.2975   12.5690   11.2932 C   0  0  0  0  0  0  0  0  0  0  0  0
   19.9955   11.7210   10.4004 O   0  0  0  0  0  0  0  0  0  0  0  0
   21.4258   11.8153   10.4916 C   0  0  0  0  0  0  0  0  0  0  0  0
   22.0292   13.2267   10.5583 C   0  0  0  0  0  0  0  0  0  0  0  0
   21.4209   14.3552    9.3143 Cl  0  0  0  0  0  0  0  0  0  0  0  0
  1  2  1  0
  2  3  2  0
  3  4  1  0
  4  5  2  0
  5  6  1  0
  5  7  1  0
  7  8  2  0
  8  9  1  0
  9 10  1  0
 10 11  2  0
 10 12  1  0
 12 13  1  0
 13 14  1  0
 14 15  1  0
 15 16  1  0
  8  2  1  0
M  END
>  <ref_pdb>  (275) 
c0270a

>  <inchikey>  (275) 
RNCLVKKWQHVMFE-UHFFFAOYSA-N

>  <original ID>  (275) 
RNCLVKKWQHVMFE-UHFFFAOYSA-N

>  <generation_date>  (275) 
None

>  <alias>  (275) 
None

>  <tags>  (275) 
[]

>  <ref_mols>  (275) 
c0692a,c1116a

>  <ref_url>  (275) 
None

>  <submitter_name>  (275) 
None

>  <exports>  (275) 
nan

>  <original SMILES>  (275) 
Nc1ccc(F)cc1NC(=O)COCCCl

>  <method>  (275) 
None

>  <submitter_email>  (275) 
None

>  <HIPPO ID>  (275) 
111914

$$$$
ZZYPJRFLWVVWSY-UHFFFAOYSA-N
     RDKit          3D

 16 16  0  0  0  0  0  0  0  0999 V2000
   16.2534   10.9122   13.2557 N   0  0  0  0  0  0  0  0  0  0  0  0
   15.8024   10.1980   12.1233 C   0  0  0  0  0  0  0  0  0  0  0  0
   14.8627    9.1928   12.3177 C   0  0  0  0  0  0  0  0  0  0  0  0
   14.1888    9.1903   13.5047 O   0  0  0  0  0  0  0  0  0  0  0  0
   14.5238    8.2668   11.3367 C   0  0  0  0  0  0  0  0  0  0  0  0
   15.0574    8.4077   10.0686 C   0  0  0  0  0  0  0  0  0  0  0  0
   16.0206    9.3857    9.8410 C   0  0  0  0  0  0  0  0  0  0  0  0
   16.4304   10.2476   10.8706 C   0  0  0  0  0  0  0  0  0  0  0  0
   17.5677   11.0300   10.6220 N   0  0  0  0  0  0  0  0  0  0  0  0
   17.9322   12.1730   11.2876 C   0  0  0  0  0  0  0  0  0  0  0  0
   17.1739   12.8960   11.9378 O   0  0  0  0  0  0  0  0  0  0  0  0
   19.3983   12.5290   11.1610 C   0  0  0  0  0  0  0  0  0  0  0  0
   20.1542   11.5864   10.4213 O   0  0  0  0  0  0  0  0  0  0  0  0
   21.5575   11.6315   10.7140 C   0  0  0  0  0  0  0  0  0  0  0  0
   22.2571   12.9401   10.3343 C   0  0  0  0  0  0  0  0  0  0  0  0
   21.9541   14.2477   11.5228 Cl  0  0  0  0  0  0  0  0  0  0  0  0
  1  2  1  0
  2  3  2  0
  3  4  1  0
  3  5  1  0
  5  6  2  0
  6  7  1  0
  7  8  2  0
  8  9  1  0
  9 10  1  0
 10 11  2  0
 10 12  1  0
 12 13  1  0
 13 14  1  0
 14 15  1  0
 15 16  1  0
  8  2  1  0
M  END
>  <ref_pdb>  (276) 
c0270a

>  <inchikey>  (276) 
ZZYPJRFLWVVWSY-UHFFFAOYSA-N

>  <original ID>  (276) 
ZZYPJRFLWVVWSY-UHFFFAOYSA-N

>  <generation_date>  (276) 
None

>  <alias>  (276) 
None

>  <tags>  (276) 
[]

>  <ref_mols>  (276) 
c0692a,c1116a

>  <ref_url>  (276) 
None

>  <submitter_name>  (276) 
None

>  <exports>  (276) 
nan

>  <original SMILES>  (276) 
Nc1c(O)cccc1NC(=O)COCCCl

>  <method>  (276) 
None

>  <submitter_email>  (276) 
None

>  <HIPPO ID>  (276) 
111915

$$$$
PKCPDQULYJLVOV-UHFFFAOYSA-N
     RDKit          3D

 17 17  0  0  0  0  0  0  0  0999 V2000
   16.2967    9.4262    8.6265 N   0  0  0  0  0  0  0  0  0  0  0  0
   15.8305    9.3998    9.9357 C   0  0  0  0  0  0  0  0  0  0  0  0
   14.9984    8.3439   10.3020 C   0  0  0  0  0  0  0  0  0  0  0  0
   14.5184    8.2735   11.5964 C   0  0  0  0  0  0  0  0  0  0  0  0
   14.8066    9.3144   12.4711 C   0  0  0  0  0  0  0  0  0  0  0  0
   14.1779    9.4164   13.6402 F   0  0  0  0  0  0  0  0  0  0  0  0
   15.6988   10.3114   12.1562 C   0  0  0  0  0  0  0  0  0  0  0  0
   16.2944   10.3007   10.9102 C   0  0  0  0  0  0  0  0  0  0  0  0
   17.4220   11.0944   10.6390 N   0  0  0  0  0  0  0  0  0  0  0  0
   17.8897   12.1251   11.4257 C   0  0  0  0  0  0  0  0  0  0  0  0
   17.2258   12.7429   12.2566 O   0  0  0  0  0  0  0  0  0  0  0  0
   19.3454   12.5003   11.1809 C   0  0  0  0  0  0  0  0  0  0  0  0
   20.0715   11.4753   10.5121 O   0  0  0  0  0  0  0  0  0  0  0  0
   21.4728   11.5277   10.8103 C   0  0  0  0  0  0  0  0  0  0  0  0
   22.1636   12.7044   10.1214 C   0  0  0  0  0  0  0  0  0  0  0  0
   23.4148   13.1656   10.8379 C   0  0  0  0  0  0  0  0  0  0  0  0
   22.9169   14.3172   12.3323 Br  0  0  0  0  0  0  0  0  0  0  0  0
  1  2  1  0
  2  3  2  0
  3  4  1  0
  4  5  2  0
  5  6  1  0
  5  7  1  0
  7  8  2  0
  8  9  1  0
  9 10  1  0
 10 11  2  0
 10 12  1  0
 12 13  1  0
 13 14  1  0
 14 15  1  0
 15 16  1  0
 16 17  1  0
  8  2  1  0
M  END
>  <ref_pdb>  (277) 
c0270a

>  <inchikey>  (277) 
PKCPDQULYJLVOV-UHFFFAOYSA-N

>  <original ID>  (277) 
PKCPDQULYJLVOV-UHFFFAOYSA-N

>  <generation_date>  (277) 
None

>  <alias>  (277) 
None

>  <tags>  (277) 
[]

>  <ref_mols>  (277) 
c0692a,c1116a

>  <ref_url>  (277) 
None

>  <submitter_name>  (277) 
None

>  <exports>  (277) 
['/opt/xchem-fragalysis-2/maxwin/CHIKV_HIPPO/hippo_prod/CHIKV_prod11_recipes/Recipe_1GERJCJ_poses.sdf']

>  <original SMILES>  (277) 
Nc1ccc(F)cc1NC(=O)COCCCBr

>  <method>  (277) 
None

>  <submitter_email>  (277) 
None

>  <HIPPO ID>  (277) 
111982

$$$$
XKFATSSWWJNGBB-UHFFFAOYSA-N
     RDKit          3D

 17 17  0  0  0  0  0  0  0  0999 V2000
   16.2327    9.4354    8.6255 N   0  0  0  0  0  0  0  0  0  0  0  0
   15.8103    9.4054    9.9501 C   0  0  0  0  0  0  0  0  0  0  0  0
   14.9821    8.3554   10.3470 C   0  0  0  0  0  0  0  0  0  0  0  0
   14.5754    8.2573   11.6702 C   0  0  0  0  0  0  0  0  0  0  0  0
   14.9458    9.2578   12.5618 C   0  0  0  0  0  0  0  0  0  0  0  0
   14.3095    9.3415   14.3176 Br  0  0  0  0  0  0  0  0  0  0  0  0
   15.8170   10.2623   12.1954 C   0  0  0  0  0  0  0  0  0  0  0  0
   16.3275   10.2860   10.9120 C   0  0  0  0  0  0  0  0  0  0  0  0
   17.4384   11.0924   10.6069 N   0  0  0  0  0  0  0  0  0  0  0  0
   17.8856   12.1517   11.3699 C   0  0  0  0  0  0  0  0  0  0  0  0
   17.2070   12.7659   12.1926 O   0  0  0  0  0  0  0  0  0  0  0  0
   19.3194   12.5802   11.0995 C   0  0  0  0  0  0  0  0  0  0  0  0
   20.1578   11.4952   10.7353 O   0  0  0  0  0  0  0  0  0  0  0  0
   21.5099   11.9049   10.5100 C   0  0  0  0  0  0  0  0  0  0  0  0
   22.4137   11.6115   11.6995 C   0  0  0  0  0  0  0  0  0  0  0  0
   22.0985   12.3407   12.9858 C   0  0  0  0  0  0  0  0  0  0  0  0
   22.5404   14.2141   12.9423 Br  0  0  0  0  0  0  0  0  0  0  0  0
  1  2  1  0
  2  3  2  0
  3  4  1  0
  4  5  2  0
  5  6  1  0
  5  7  1  0
  7  8  2  0
  8  9  1  0
  9 10  1  0
 10 11  2  0
 10 12  1  0
 12 13  1  0
 13 14  1  0
 14 15  1  0
 15 16  1  0
 16 17  1  0
  8  2  1  0
M  END
>  <ref_pdb>  (278) 
c0270a

>  <inchikey>  (278) 
XKFATSSWWJNGBB-UHFFFAOYSA-N

>  <original ID>  (278) 
XKFATSSWWJNGBB-UHFFFAOYSA-N

>  <generation_date>  (278) 
None

>  <alias>  (278) 
None

>  <tags>  (278) 
[]

>  <ref_mols>  (278) 
c0692a,c1116a

>  <ref_url>  (278) 
None

>  <submitter_name>  (278) 
None

>  <exports>  (278) 
nan

>  <original SMILES>  (278) 
Nc1ccc(Br)cc1NC(=O)COCCCBr

>  <method>  (278) 
None

>  <submitter_email>  (278) 
None

>  <HIPPO ID>  (278) 
111986

$$$$
HKZYNRSTEVMYGC-UHFFFAOYSA-N
     RDKit          3D

 17 17  0  0  0  0  0  0  0  0999 V2000
   22.4511   12.8883   13.4724 C   0  0  0  0  0  0  0  0  0  0  0  0
   22.3356   12.7245   12.2895 C   0  0  0  0  0  0  0  0  0  0  0  0
   22.2112   12.4739   10.8443 C   0  0  0  0  0  0  0  0  0  0  0  0
   21.3039   11.2705   10.5866 C   0  0  0  0  0  0  0  0  0  0  0  0
   19.9276   11.5669   10.3237 O   0  0  0  0  0  0  0  0  0  0  0  0
   19.3167   12.4865   11.2129 C   0  0  0  0  0  0  0  0  0  0  0  0
   17.8469   12.1617   11.4486 C   0  0  0  0  0  0  0  0  0  0  0  0
   17.1942   12.7963   12.2742 O   0  0  0  0  0  0  0  0  0  0  0  0
   17.3760   11.1189   10.6812 N   0  0  0  0  0  0  0  0  0  0  0  0
   16.2677   10.3071   10.9739 C   0  0  0  0  0  0  0  0  0  0  0  0
   15.6584   10.3529   12.2120 C   0  0  0  0  0  0  0  0  0  0  0  0
   14.7893    9.3460   12.5584 C   0  0  0  0  0  0  0  0  0  0  0  0
   14.1413    9.4821   13.7135 F   0  0  0  0  0  0  0  0  0  0  0  0
   14.5254    8.2683   11.7201 C   0  0  0  0  0  0  0  0  0  0  0  0
   15.0142    8.2986   10.4276 C   0  0  0  0  0  0  0  0  0  0  0  0
   15.8769    9.3255   10.0452 C   0  0  0  0  0  0  0  0  0  0  0  0
   16.1963    9.4324    8.7045 N   0  0  0  0  0  0  0  0  0  0  0  0
  1  2  3  0
  2  3  1  0
  3  4  1  0
  4  5  1  0
  5  6  1  0
  6  7  1  0
  7  8  2  0
  7  9  1  0
  9 10  1  0
 10 11  2  0
 11 12  1  0
 12 13  1  0
 12 14  2  0
 14 15  1  0
 15 16  2  0
 16 17  1  0
 16 10  1  0
M  END
>  <ref_pdb>  (279) 
c0270a

>  <inchikey>  (279) 
HKZYNRSTEVMYGC-UHFFFAOYSA-N

>  <original ID>  (279) 
HKZYNRSTEVMYGC-UHFFFAOYSA-N

>  <generation_date>  (279) 
None

>  <alias>  (279) 
None

>  <tags>  (279) 
[]

>  <ref_mols>  (279) 
c0692a,c1116a

>  <ref_url>  (279) 
None

>  <submitter_name>  (279) 
None

>  <exports>  (279) 
['/opt/xchem-fragalysis-2/maxwin/CHIKV_HIPPO/hippo_prod/CHIKV_prod11_recipes/Recipe_1GERJCJ_poses.sdf']

>  <original SMILES>  (279) 
C#CCCOCC(=O)Nc1cc(F)ccc1N

>  <method>  (279) 
None

>  <submitter_email>  (279) 
None

>  <HIPPO ID>  (279) 
111988

$$$$
OKQATKYMESJMAZ-UHFFFAOYSA-N
     RDKit          3D

 17 17  0  0  0  0  0  0  0  0999 V2000
   22.2743   11.7291   11.8737 C   0  0  0  0  0  0  0  0  0  0  0  0
   21.5439   11.6157   10.5516 C   0  0  0  0  0  0  0  0  0  0  0  0
   20.1511   11.3437   10.7772 O   0  0  0  0  0  0  0  0  0  0  0  0
   19.3788   12.4328   10.9748 C   0  0  0  0  0  0  0  0  0  0  0  0
   19.7019   13.6035   10.9064 O   0  0  0  0  0  0  0  0  0  0  0  0
   17.9503   11.9948   11.3151 C   0  0  0  0  0  0  0  0  0  0  0  0
   17.3507   12.5877   12.2043 O   0  0  0  0  0  0  0  0  0  0  0  0
   17.4652   10.9737   10.5295 N   0  0  0  0  0  0  0  0  0  0  0  0
   16.3235   10.1810   10.7337 C   0  0  0  0  0  0  0  0  0  0  0  0
   15.8926    9.4437    9.6208 C   0  0  0  0  0  0  0  0  0  0  0  0
   14.9202    8.4569    9.7342 C   0  0  0  0  0  0  0  0  0  0  0  0
   14.4582    8.1040   10.9829 C   0  0  0  0  0  0  0  0  0  0  0  0
   13.4210    6.5250   11.1359 Br  0  0  0  0  0  0  0  0  0  0  0  0
   14.8172    8.8986   12.0679 C   0  0  0  0  0  0  0  0  0  0  0  0
   14.3693    8.6369   13.3318 O   0  0  0  0  0  0  0  0  0  0  0  0
   15.6671   10.0077   11.9531 C   0  0  0  0  0  0  0  0  0  0  0  0
   15.9740   10.6861   13.1626 N   0  0  0  0  0  0  0  0  0  0  0  0
  1  2  1  0
  2  3  1  0
  3  4  1  0
  4  5  2  0
  4  6  1  0
  6  7  2  0
  6  8  1  0
  8  9  1  0
  9 10  2  0
 10 11  1  0
 11 12  2  0
 12 13  1  0
 12 14  1  0
 14 15  1  0
 14 16  2  0
 16 17  1  0
 16  9  1  0
M  END
>  <ref_pdb>  (280) 
c0270a

>  <inchikey>  (280) 
OKQATKYMESJMAZ-UHFFFAOYSA-N

>  <original ID>  (280) 
OKQATKYMESJMAZ-UHFFFAOYSA-N

>  <generation_date>  (280) 
None

>  <alias>  (280) 
None

>  <tags>  (280) 
[]

>  <ref_mols>  (280) 
c0692a,c1116a

>  <ref_url>  (280) 
None

>  <submitter_name>  (280) 
None

>  <exports>  (280) 
nan

>  <original SMILES>  (280) 
CCOC(=O)C(=O)Nc1ccc(Br)c(O)c1N

>  <method>  (280) 
None

>  <submitter_email>  (280) 
None

>  <HIPPO ID>  (280) 
112000

$$$$
XROLROQPFYHVTH-UHFFFAOYSA-N
     RDKit          3D

 17 17  0  0  0  0  0  0  0  0999 V2000
   22.3377   11.6136   11.4359 C   0  0  0  0  0  0  0  0  0  0  0  0
   21.4121   11.6890   10.2630 C   0  0  0  0  0  0  0  0  0  0  0  0
   20.0678   11.3731   10.6606 O   0  0  0  0  0  0  0  0  0  0  0  0
   19.2949   12.4312   10.9845 C   0  0  0  0  0  0  0  0  0  0  0  0
   19.5823   13.6117   10.9383 O   0  0  0  0  0  0  0  0  0  0  0  0
   17.9074   11.9360   11.4100 C   0  0  0  0  0  0  0  0  0  0  0  0
   17.4042   12.3982   12.4252 O   0  0  0  0  0  0  0  0  0  0  0  0
   17.3521   10.9955   10.5618 N   0  0  0  0  0  0  0  0  0  0  0  0
   16.2570   10.1629   10.8496 C   0  0  0  0  0  0  0  0  0  0  0  0
   15.7736   10.0195   12.1341 C   0  0  0  0  0  0  0  0  0  0  0  0
   14.9148    8.9685   12.4406 C   0  0  0  0  0  0  0  0  0  0  0  0
   14.3860    8.9202   14.4269 I   0  0  0  0  0  0  0  0  0  0  0  0
   14.5041    8.0713   11.4510 C   0  0  0  0  0  0  0  0  0  0  0  0
   13.5122    6.6840   11.7258 Cl  0  0  0  0  0  0  0  0  0  0  0  0
   14.8853    8.3025   10.1397 C   0  0  0  0  0  0  0  0  0  0  0  0
   15.7247    9.3674    9.8300 C   0  0  0  0  0  0  0  0  0  0  0  0
   16.1725    9.4679    8.5226 N   0  0  0  0  0  0  0  0  0  0  0  0
  1  2  1  0
  2  3  1  0
  3  4  1  0
  4  5  2  0
  4  6  1  0
  6  7  2  0
  6  8  1  0
  8  9  1  0
  9 10  2  0
 10 11  1  0
 11 12  1  0
 11 13  2  0
 13 14  1  0
 13 15  1  0
 15 16  2  0
 16 17  1  0
 16  9  1  0
M  END
>  <ref_pdb>  (281) 
c0270a

>  <inchikey>  (281) 
XROLROQPFYHVTH-UHFFFAOYSA-N

>  <original ID>  (281) 
XROLROQPFYHVTH-UHFFFAOYSA-N

>  <generation_date>  (281) 
None

>  <alias>  (281) 
None

>  <tags>  (281) 
[]

>  <ref_mols>  (281) 
c0692a,c1116a

>  <ref_url>  (281) 
None

>  <submitter_name>  (281) 
None

>  <exports>  (281) 
nan

>  <original SMILES>  (281) 
CCOC(=O)C(=O)Nc1cc(I)c(Cl)cc1N

>  <method>  (281) 
None

>  <submitter_email>  (281) 
None

>  <HIPPO ID>  (281) 
112003

$$$$
BDPKCRSGIATMPA-UHFFFAOYSA-N
     RDKit          3D

 17 17  0  0  0  0  0  0  0  0999 V2000
   16.2480    9.4334    8.5981 N   0  0  0  0  0  0  0  0  0  0  0  0
   15.7976    9.3913    9.9111 C   0  0  0  0  0  0  0  0  0  0  0  0
   14.9724    8.3333   10.2839 C   0  0  0  0  0  0  0  0  0  0  0  0
   14.5092    8.2584   11.5849 C   0  0  0  0  0  0  0  0  0  0  0  0
   14.8089    9.2958   12.4607 C   0  0  0  0  0  0  0  0  0  0  0  0
   14.1934    9.3951   13.6368 F   0  0  0  0  0  0  0  0  0  0  0  0
   15.6993   10.2917   12.1390 C   0  0  0  0  0  0  0  0  0  0  0  0
   16.2765   10.2830   10.8845 C   0  0  0  0  0  0  0  0  0  0  0  0
   17.4040   11.0709   10.6021 N   0  0  0  0  0  0  0  0  0  0  0  0
   17.8419   12.1324   11.3598 C   0  0  0  0  0  0  0  0  0  0  0  0
   17.1384   12.7845   12.1310 O   0  0  0  0  0  0  0  0  0  0  0  0
   19.3065   12.4980   11.1662 C   0  0  0  0  0  0  0  0  0  0  0  0
   20.0975   11.4110   10.7101 O   0  0  0  0  0  0  0  0  0  0  0  0
   21.4899   11.7250   10.6534 C   0  0  0  0  0  0  0  0  0  0  0  0
   22.2203   11.9176   11.9815 C   0  0  0  0  0  0  0  0  0  0  0  0
   23.1260   11.2321   12.4254 O   0  0  0  0  0  0  0  0  0  0  0  0
   21.7600   12.9679   12.6927 O   0  0  0  0  0  0  0  0  0  0  0  0
  1  2  1  0
  2  3  2  0
  3  4  1  0
  4  5  2  0
  5  6  1  0
  5  7  1  0
  7  8  2  0
  8  9  1  0
  9 10  1  0
 10 11  2  0
 10 12  1  0
 12 13  1  0
 13 14  1  0
 14 15  1  0
 15 16  2  0
 15 17  1  0
  8  2  1  0
M  END
>  <ref_pdb>  (282) 
c0270a

>  <inchikey>  (282) 
BDPKCRSGIATMPA-UHFFFAOYSA-N

>  <original ID>  (282) 
BDPKCRSGIATMPA-UHFFFAOYSA-N

>  <generation_date>  (282) 
None

>  <alias>  (282) 
None

>  <tags>  (282) 
[]

>  <ref_mols>  (282) 
c0692a,c1116a

>  <ref_url>  (282) 
None

>  <submitter_name>  (282) 
None

>  <exports>  (282) 
nan

>  <original SMILES>  (282) 
Nc1ccc(F)cc1NC(=O)COCC(=O)O

>  <method>  (282) 
None

>  <submitter_email>  (282) 
None

>  <HIPPO ID>  (282) 
112010

$$$$
ARGPPKUKYCWQTD-UHFFFAOYSA-N
     RDKit          3D

 17 17  0  0  0  0  0  0  0  0999 V2000
   22.6985   13.5122    8.0355 C   0  0  0  0  0  0  0  0  0  0  0  0
   22.3971   13.2755    9.1716 C   0  0  0  0  0  0  0  0  0  0  0  0
   22.1702   12.8834   10.5633 C   0  0  0  0  0  0  0  0  0  0  0  0
   21.4401   11.5403   10.6899 C   0  0  0  0  0  0  0  0  0  0  0  0
   20.0340   11.5815   10.4038 O   0  0  0  0  0  0  0  0  0  0  0  0
   19.3335   12.5358   11.1836 C   0  0  0  0  0  0  0  0  0  0  0  0
   17.8748   12.1682   11.4141 C   0  0  0  0  0  0  0  0  0  0  0  0
   17.2025   12.8089   12.2208 O   0  0  0  0  0  0  0  0  0  0  0  0
   17.4222   11.1080   10.6586 N   0  0  0  0  0  0  0  0  0  0  0  0
   16.3202   10.2912   10.9718 C   0  0  0  0  0  0  0  0  0  0  0  0
   15.7909   10.2989   12.2475 C   0  0  0  0  0  0  0  0  0  0  0  0
   14.9374    9.2865   12.6355 C   0  0  0  0  0  0  0  0  0  0  0  0
   14.2828    9.4056   14.3811 Br  0  0  0  0  0  0  0  0  0  0  0  0
   14.5831    8.2574   11.7703 C   0  0  0  0  0  0  0  0  0  0  0  0
   14.9998    8.3227   10.4499 C   0  0  0  0  0  0  0  0  0  0  0  0
   15.8692    9.3380   10.0458 C   0  0  0  0  0  0  0  0  0  0  0  0
   16.1518    9.4479    8.6958 N   0  0  0  0  0  0  0  0  0  0  0  0
  1  2  3  0
  2  3  1  0
  3  4  1  0
  4  5  1  0
  5  6  1  0
  6  7  1  0
  7  8  2  0
  7  9  1  0
  9 10  1  0
 10 11  2  0
 11 12  1  0
 12 13  1  0
 12 14  2  0
 14 15  1  0
 15 16  2  0
 16 17  1  0
 16 10  1  0
M  END
>  <ref_pdb>  (283) 
c0270a

>  <inchikey>  (283) 
ARGPPKUKYCWQTD-UHFFFAOYSA-N

>  <original ID>  (283) 
ARGPPKUKYCWQTD-UHFFFAOYSA-N

>  <generation_date>  (283) 
None

>  <alias>  (283) 
None

>  <tags>  (283) 
[]

>  <ref_mols>  (283) 
c0692a,c1116a

>  <ref_url>  (283) 
None

>  <submitter_name>  (283) 
None

>  <exports>  (283) 
nan

>  <original SMILES>  (283) 
C#CCCOCC(=O)Nc1cc(Br)ccc1N

>  <method>  (283) 
None

>  <submitter_email>  (283) 
None

>  <HIPPO ID>  (283) 
112022

$$$$
PKTWDSCFQJZZTK-UHFFFAOYSA-N
     RDKit          3D

 17 17  0  0  0  0  0  0  0  0999 V2000
   21.0773   15.1086    9.1755 C   0  0  0  0  0  0  0  0  0  0  0  0
   21.5532   14.1462    9.7137 C   0  0  0  0  0  0  0  0  0  0  0  0
   22.1725   13.0504   10.4796 C   0  0  0  0  0  0  0  0  0  0  0  0
   21.4861   11.6835   10.4003 C   0  0  0  0  0  0  0  0  0  0  0  0
   20.0565   11.6737   10.3508 O   0  0  0  0  0  0  0  0  0  0  0  0
   19.4210   12.5291   11.2831 C   0  0  0  0  0  0  0  0  0  0  0  0
   17.9461   12.1995   11.4255 C   0  0  0  0  0  0  0  0  0  0  0  0
   17.2193   12.9039   12.1267 O   0  0  0  0  0  0  0  0  0  0  0  0
   17.5425   11.1045   10.7026 N   0  0  0  0  0  0  0  0  0  0  0  0
   16.3940   10.3184   10.8853 C   0  0  0  0  0  0  0  0  0  0  0  0
   16.0523    9.4557    9.8293 C   0  0  0  0  0  0  0  0  0  0  0  0
   15.0824    8.4676    9.9837 C   0  0  0  0  0  0  0  0  0  0  0  0
   14.5187    8.2674   11.2266 C   0  0  0  0  0  0  0  0  0  0  0  0
   14.8168    9.1681   12.2375 C   0  0  0  0  0  0  0  0  0  0  0  0
   14.2859    8.9970   13.4828 O   0  0  0  0  0  0  0  0  0  0  0  0
   15.6616   10.2635   12.0715 C   0  0  0  0  0  0  0  0  0  0  0  0
   15.8703   11.0635   13.2268 N   0  0  0  0  0  0  0  0  0  0  0  0
  1  2  3  0
  2  3  1  0
  3  4  1  0
  4  5  1  0
  5  6  1  0
  6  7  1  0
  7  8  2  0
  7  9  1  0
  9 10  1  0
 10 11  2  0
 11 12  1  0
 12 13  2  0
 13 14  1  0
 14 15  1  0
 14 16  2  0
 16 17  1  0
 16 10  1  0
M  END
>  <ref_pdb>  (284) 
c0270a

>  <inchikey>  (284) 
PKTWDSCFQJZZTK-UHFFFAOYSA-N

>  <original ID>  (284) 
PKTWDSCFQJZZTK-UHFFFAOYSA-N

>  <generation_date>  (284) 
None

>  <alias>  (284) 
None

>  <tags>  (284) 
[]

>  <ref_mols>  (284) 
c0692a,c1116a

>  <ref_url>  (284) 
None

>  <submitter_name>  (284) 
None

>  <exports>  (284) 
nan

>  <original SMILES>  (284) 
C#CCCOCC(=O)Nc1cccc(O)c1N

>  <method>  (284) 
None

>  <submitter_email>  (284) 
None

>  <HIPPO ID>  (284) 
112025

$$$$
CRRSNJPOSSQWMF-UHFFFAOYSA-N
     RDKit          3D

 17 17  0  0  0  0  0  0  0  0999 V2000
   16.2197    9.4460    8.6305 N   0  0  0  0  0  0  0  0  0  0  0  0
   15.7870    9.3939    9.9509 C   0  0  0  0  0  0  0  0  0  0  0  0
   14.9613    8.3324   10.3244 C   0  0  0  0  0  0  0  0  0  0  0  0
   14.5529    8.2007   11.6447 C   0  0  0  0  0  0  0  0  0  0  0  0
   14.9208    9.1795   12.5602 C   0  0  0  0  0  0  0  0  0  0  0  0
   14.2905    9.2192   14.3204 Br  0  0  0  0  0  0  0  0  0  0  0  0
   15.7843   10.1977   12.2156 C   0  0  0  0  0  0  0  0  0  0  0  0
   16.2957   10.2565   10.9330 C   0  0  0  0  0  0  0  0  0  0  0  0
   17.3999   11.0797   10.6501 N   0  0  0  0  0  0  0  0  0  0  0  0
   17.8617   12.0946   11.4616 C   0  0  0  0  0  0  0  0  0  0  0  0
   17.2029   12.6727   12.3255 O   0  0  0  0  0  0  0  0  0  0  0  0
   19.2995   12.5155   11.2103 C   0  0  0  0  0  0  0  0  0  0  0  0
   20.0563   11.5654   10.4757 O   0  0  0  0  0  0  0  0  0  0  0  0
   21.4640   11.8072   10.5783 C   0  0  0  0  0  0  0  0  0  0  0  0
   21.9572   13.2037   10.1750 C   0  0  0  0  0  0  0  0  0  0  0  0
   21.2645   14.1314    9.7777 O   0  0  0  0  0  0  0  0  0  0  0  0
   23.2867   13.3406   10.3235 O   0  0  0  0  0  0  0  0  0  0  0  0
  1  2  1  0
  2  3  2  0
  3  4  1  0
  4  5  2  0
  5  6  1  0
  5  7  1  0
  7  8  2  0
  8  9  1  0
  9 10  1  0
 10 11  2  0
 10 12  1  0
 12 13  1  0
 13 14  1  0
 14 15  1  0
 15 16  2  0
 15 17  1  0
  8  2  1  0
M  END
>  <ref_pdb>  (285) 
c0270a

>  <inchikey>  (285) 
CRRSNJPOSSQWMF-UHFFFAOYSA-N

>  <original ID>  (285) 
CRRSNJPOSSQWMF-UHFFFAOYSA-N

>  <generation_date>  (285) 
None

>  <alias>  (285) 
None

>  <tags>  (285) 
[]

>  <ref_mols>  (285) 
c0692a,c1116a

>  <ref_url>  (285) 
None

>  <submitter_name>  (285) 
None

>  <exports>  (285) 
nan

>  <original SMILES>  (285) 
Nc1ccc(Br)cc1NC(=O)COCC(=O)O

>  <method>  (285) 
None

>  <submitter_email>  (285) 
None

>  <HIPPO ID>  (285) 
112037

$$$$
FPMXBOCQXWTVPM-UHFFFAOYSA-N
     RDKit          3D

 17 17  0  0  0  0  0  0  0  0999 V2000
   15.8635   10.9858   13.3095 N   0  0  0  0  0  0  0  0  0  0  0  0
   15.6577   10.2375   12.1162 C   0  0  0  0  0  0  0  0  0  0  0  0
   14.8273    9.1236   12.2325 C   0  0  0  0  0  0  0  0  0  0  0  0
   14.2951    8.8890   13.4661 O   0  0  0  0  0  0  0  0  0  0  0  0
   14.5428    8.2647   11.1834 C   0  0  0  0  0  0  0  0  0  0  0  0
   15.1281    8.5132    9.9596 C   0  0  0  0  0  0  0  0  0  0  0  0
   16.0919    9.5151    9.8544 C   0  0  0  0  0  0  0  0  0  0  0  0
   16.3950   10.3584   10.9365 C   0  0  0  0  0  0  0  0  0  0  0  0
   17.5035   11.2116   10.7899 N   0  0  0  0  0  0  0  0  0  0  0  0
   17.7696   12.3598   11.4968 C   0  0  0  0  0  0  0  0  0  0  0  0
   16.9500   12.9952   12.1612 O   0  0  0  0  0  0  0  0  0  0  0  0
   19.2003   12.8526   11.4084 C   0  0  0  0  0  0  0  0  0  0  0  0
   20.0012   11.9933   10.6326 O   0  0  0  0  0  0  0  0  0  0  0  0
   21.3657   12.4093   10.6661 C   0  0  0  0  0  0  0  0  0  0  0  0
   22.1904   11.2327   10.2520 C   0  0  0  0  0  0  0  0  0  0  0  0
   21.8480   10.0730   10.3989 O   0  0  0  0  0  0  0  0  0  0  0  0
   23.3655   11.6058    9.7226 O   0  0  0  0  0  0  0  0  0  0  0  0
  1  2  1  0
  2  3  2  0
  3  4  1  0
  3  5  1  0
  5  6  2  0
  6  7  1  0
  7  8  2  0
  8  9  1  0
  9 10  1  0
 10 11  2  0
 10 12  1  0
 12 13  1  0
 13 14  1  0
 14 15  1  0
 15 16  2  0
 15 17  1  0
  8  2  1  0
M  END
>  <ref_pdb>  (286) 
c0270a

>  <inchikey>  (286) 
FPMXBOCQXWTVPM-UHFFFAOYSA-N

>  <original ID>  (286) 
FPMXBOCQXWTVPM-UHFFFAOYSA-N

>  <generation_date>  (286) 
None

>  <alias>  (286) 
None

>  <tags>  (286) 
[]

>  <ref_mols>  (286) 
c0692a,c1116a

>  <ref_url>  (286) 
None

>  <submitter_name>  (286) 
None

>  <exports>  (286) 
nan

>  <original SMILES>  (286) 
Nc1c(O)cccc1NC(=O)COCC(=O)O

>  <method>  (286) 
None

>  <submitter_email>  (286) 
None

>  <HIPPO ID>  (286) 
112039

$$$$
KEGIXEWRHNGQTO-UHFFFAOYSA-N
     RDKit          3D

 17 17  0  0  0  0  0  0  0  0999 V2000
   22.2616   11.7192   11.8805 C   0  0  0  0  0  0  0  0  0  0  0  0
   21.5558   11.5557   10.5502 C   0  0  0  0  0  0  0  0  0  0  0  0
   20.1581   11.2943   10.7561 O   0  0  0  0  0  0  0  0  0  0  0  0
   19.3875   12.3916   10.8972 C   0  0  0  0  0  0  0  0  0  0  0  0
   19.7265   13.5578   10.8120 O   0  0  0  0  0  0  0  0  0  0  0  0
   17.9459   11.9852   11.2145 C   0  0  0  0  0  0  0  0  0  0  0  0
   17.3191   12.6654   12.0215 O   0  0  0  0  0  0  0  0  0  0  0  0
   17.4693   10.8983   10.5113 N   0  0  0  0  0  0  0  0  0  0  0  0
   16.3287   10.1243   10.8118 C   0  0  0  0  0  0  0  0  0  0  0  0
   15.8536    9.2719    9.7977 C   0  0  0  0  0  0  0  0  0  0  0  0
   16.3587    9.3563    8.5660 F   0  0  0  0  0  0  0  0  0  0  0  0
   14.8965    8.2950   10.0275 C   0  0  0  0  0  0  0  0  0  0  0  0
   14.4141    8.1346   11.3067 C   0  0  0  0  0  0  0  0  0  0  0  0
   14.7949    9.0523   12.2810 C   0  0  0  0  0  0  0  0  0  0  0  0
   14.1934    9.0396   13.4731 F   0  0  0  0  0  0  0  0  0  0  0  0
   15.7205   10.0720   12.0679 C   0  0  0  0  0  0  0  0  0  0  0  0
   16.1568   10.7763   13.2135 N   0  0  0  0  0  0  0  0  0  0  0  0
  1  2  1  0
  2  3  1  0
  3  4  1  0
  4  5  2  0
  4  6  1  0
  6  7  2  0
  6  8  1  0
  8  9  1  0
  9 10  2  0
 10 11  1  0
 10 12  1  0
 12 13  2  0
 13 14  1  0
 14 15  1  0
 14 16  2  0
 16 17  1  0
 16  9  1  0
M  END
>  <ref_pdb>  (287) 
c0270a

>  <inchikey>  (287) 
KEGIXEWRHNGQTO-UHFFFAOYSA-N

>  <original ID>  (287) 
KEGIXEWRHNGQTO-UHFFFAOYSA-N

>  <generation_date>  (287) 
None

>  <alias>  (287) 
None

>  <tags>  (287) 
[]

>  <ref_mols>  (287) 
c0692a,c1116a

>  <ref_url>  (287) 
None

>  <submitter_name>  (287) 
None

>  <exports>  (287) 
nan

>  <original SMILES>  (287) 
CCOC(=O)C(=O)Nc1c(F)ccc(F)c1N

>  <method>  (287) 
None

>  <submitter_email>  (287) 
None

>  <HIPPO ID>  (287) 
112092

$$$$
NTNVEHZNYAOZQT-JTQLQIEISA-N
     RDKit          3D

 17 18  0  0  0  0  0  0  0  0999 V2000
   16.3307    9.3155    8.8046 N   0  0  0  0  0  0  0  0  0  0  0  0
   15.8362    9.4013   10.0912 C   0  0  0  0  0  0  0  0  0  0  0  0
   15.0073    8.3694   10.5345 C   0  0  0  0  0  0  0  0  0  0  0  0
   14.5360    8.3857   11.8309 C   0  0  0  0  0  0  0  0  0  0  0  0
   14.8092    9.4936   12.6210 C   0  0  0  0  0  0  0  0  0  0  0  0
   14.1542    9.6867   13.7636 F   0  0  0  0  0  0  0  0  0  0  0  0
   15.7136   10.4584   12.2411 C   0  0  0  0  0  0  0  0  0  0  0  0
   16.3165   10.3565   11.0023 C   0  0  0  0  0  0  0  0  0  0  0  0
   17.4658   11.1012   10.6543 N   0  0  0  0  0  0  0  0  0  0  0  0
   18.0363   12.1042   11.4162 C   0  0  0  0  0  0  0  0  0  0  0  0
   17.4151   12.7009   12.2990 O   0  0  0  0  0  0  0  0  0  0  0  0
   19.4970   12.4937   11.0807 C   0  0  2  0  0  0  0  0  0  0  0  0
   20.3908   11.3088   10.6786 C   0  0  0  0  0  0  0  0  0  0  0  0
   21.7305   11.7495   10.2958 N   0  0  0  0  0  0  0  0  0  0  0  0
   22.2589   12.7533   11.2253 C   0  0  0  0  0  0  0  0  0  0  0  0
   21.4068   12.9363   12.4872 C   0  0  0  0  0  0  0  0  0  0  0  0
   20.0391   13.2352   12.1913 O   0  0  0  0  0  0  0  0  0  0  0  0
  1  2  1  0
  2  3  2  0
  3  4  1  0
  4  5  2  0
  5  6  1  0
  5  7  1  0
  7  8  2  0
  8  9  1  0
  9 10  1  0
 10 11  2  0
 12 10  1  1
 12 13  1  0
 13 14  1  0
 14 15  1  0
 15 16  1  0
 16 17  1  0
  8  2  1  0
 17 12  1  0
M  END
>  <ref_pdb>  (288) 
c0270a

>  <inchikey>  (288) 
NTNVEHZNYAOZQT-JTQLQIEISA-N

>  <original ID>  (288) 
NTNVEHZNYAOZQT-JTQLQIEISA-N

>  <generation_date>  (288) 
None

>  <alias>  (288) 
None

>  <tags>  (288) 
[]

>  <ref_mols>  (288) 
c0692a,c1116a

>  <ref_url>  (288) 
None

>  <submitter_name>  (288) 
None

>  <exports>  (288) 
nan

>  <original SMILES>  (288) 
Nc1ccc(F)cc1NC(=O)[C@@H]1CNCCO1

>  <method>  (288) 
None

>  <submitter_email>  (288) 
None

>  <HIPPO ID>  (288) 
112093

$$$$
NTNVEHZNYAOZQT-SNVBAGLBSA-N
     RDKit          3D

 17 18  0  0  0  0  0  0  0  0999 V2000
   16.3136    9.4591    8.6085 N   0  0  0  0  0  0  0  0  0  0  0  0
   15.9030    9.4668    9.9331 C   0  0  0  0  0  0  0  0  0  0  0  0
   15.0444    8.4425   10.3284 C   0  0  0  0  0  0  0  0  0  0  0  0
   14.5710    8.4180   11.6241 C   0  0  0  0  0  0  0  0  0  0  0  0
   14.8889    9.4756   12.4653 C   0  0  0  0  0  0  0  0  0  0  0  0
   14.2415    9.6423   13.6169 F   0  0  0  0  0  0  0  0  0  0  0  0
   15.8389   10.4174   12.1323 C   0  0  0  0  0  0  0  0  0  0  0  0
   16.4318   10.3611   10.8840 C   0  0  0  0  0  0  0  0  0  0  0  0
   17.6031   11.1025   10.5824 N   0  0  0  0  0  0  0  0  0  0  0  0
   18.1004   12.1517   11.3342 C   0  0  0  0  0  0  0  0  0  0  0  0
   17.4004   12.7984   12.1201 O   0  0  0  0  0  0  0  0  0  0  0  0
   19.5949   12.5433   11.1641 C   0  0  1  0  0  0  0  0  0  0  0  0
   20.5321   11.3800   10.8110 C   0  0  0  0  0  0  0  0  0  0  0  0
   21.9431   11.7667   10.9141 N   0  0  0  0  0  0  0  0  0  0  0  0
   22.2173   12.9919   10.1519 C   0  0  0  0  0  0  0  0  0  0  0  0
   21.1694   14.0986   10.3781 C   0  0  0  0  0  0  0  0  0  0  0  0
   19.8169   13.6232   10.2492 O   0  0  0  0  0  0  0  0  0  0  0  0
  1  2  1  0
  2  3  2  0
  3  4  1  0
  4  5  2  0
  5  6  1  0
  5  7  1  0
  7  8  2  0
  8  9  1  0
  9 10  1  0
 10 11  2  0
 12 10  1  6
 12 13  1  0
 13 14  1  0
 14 15  1  0
 15 16  1  0
 16 17  1  0
  8  2  1  0
 17 12  1  0
M  END
>  <ref_pdb>  (289) 
c0270a

>  <inchikey>  (289) 
NTNVEHZNYAOZQT-SNVBAGLBSA-N

>  <original ID>  (289) 
NTNVEHZNYAOZQT-SNVBAGLBSA-N

>  <generation_date>  (289) 
None

>  <alias>  (289) 
None

>  <tags>  (289) 
[]

>  <ref_mols>  (289) 
c0692a,c1116a

>  <ref_url>  (289) 
None

>  <submitter_name>  (289) 
None

>  <exports>  (289) 
nan

>  <original SMILES>  (289) 
Nc1ccc(F)cc1NC(=O)[C@H]1CNCCO1

>  <method>  (289) 
None

>  <submitter_email>  (289) 
None

>  <HIPPO ID>  (289) 
112094

$$$$
UGLHAJSPXOWHSE-UHFFFAOYSA-N
     RDKit          3D

 17 17  0  0  0  0  0  0  0  0999 V2000
   22.3225   11.7735   11.8483 C   0  0  0  0  0  0  0  0  0  0  0  0
   21.5202   11.5983   10.5749 C   0  0  0  0  0  0  0  0  0  0  0  0
   20.1249   11.4810   10.8951 O   0  0  0  0  0  0  0  0  0  0  0  0
   19.4737   12.6561   11.0375 C   0  0  0  0  0  0  0  0  0  0  0  0
   19.8666   13.7740   10.7677 O   0  0  0  0  0  0  0  0  0  0  0  0
   18.0876   12.3943   11.6205 C   0  0  0  0  0  0  0  0  0  0  0  0
   17.7175   13.0202   12.6027 O   0  0  0  0  0  0  0  0  0  0  0  0
   17.3721   11.4367   10.9469 N   0  0  0  0  0  0  0  0  0  0  0  0
   16.2787   10.7415   11.4805 C   0  0  0  0  0  0  0  0  0  0  0  0
   15.9899   10.7234   12.8264 C   0  0  0  0  0  0  0  0  0  0  0  0
   15.1538    9.7382   13.3176 C   0  0  0  0  0  0  0  0  0  0  0  0
   14.6932    9.8250   15.1085 Br  0  0  0  0  0  0  0  0  0  0  0  0
   14.6424    8.7377   12.5191 C   0  0  0  0  0  0  0  0  0  0  0  0
   14.7632    8.8907   11.1582 C   0  0  0  0  0  0  0  0  0  0  0  0
   15.5545    9.9215   10.6286 C   0  0  0  0  0  0  0  0  0  0  0  0
   15.5425   10.1936    9.2594 N   0  0  0  0  0  0  0  0  0  0  0  0
   15.6575    8.9626    8.5628 C   0  0  0  0  0  0  0  0  0  0  0  0
  1  2  1  0
  2  3  1  0
  3  4  1  0
  4  5  2  0
  4  6  1  0
  6  7  2  0
  6  8  1  0
  8  9  1  0
  9 10  2  0
 10 11  1  0
 11 12  1  0
 11 13  2  0
 13 14  1  0
 14 15  2  0
 15 16  1  0
 16 17  1  0
 15  9  1  0
M  END
>  <ref_pdb>  (290) 
c0270a

>  <inchikey>  (290) 
UGLHAJSPXOWHSE-UHFFFAOYSA-N

>  <original ID>  (290) 
UGLHAJSPXOWHSE-UHFFFAOYSA-N

>  <generation_date>  (290) 
None

>  <alias>  (290) 
None

>  <tags>  (290) 
[]

>  <ref_mols>  (290) 
c0692a,c1116a

>  <ref_url>  (290) 
None

>  <submitter_name>  (290) 
None

>  <exports>  (290) 
['/opt/xchem-fragalysis-2/maxwin/CHIKV_HIPPO/hippo_prod/CHIKV_prod11_recipes/Recipe_1GERJCJ_poses.sdf']

>  <original SMILES>  (290) 
CCOC(=O)C(=O)Nc1cc(Br)ccc1NC

>  <method>  (290) 
None

>  <submitter_email>  (290) 
None

>  <HIPPO ID>  (290) 
112099

$$$$
NYILPPPJQBQITB-JTQLQIEISA-N
     RDKit          3D

 17 18  0  0  0  0  0  0  0  0999 V2000
   16.2116    9.4326    8.6010 N   0  0  0  0  0  0  0  0  0  0  0  0
   15.8122    9.4182    9.9319 C   0  0  0  0  0  0  0  0  0  0  0  0
   14.9771    8.3823   10.3488 C   0  0  0  0  0  0  0  0  0  0  0  0
   14.5869    8.3033   11.6775 C   0  0  0  0  0  0  0  0  0  0  0  0
   14.9829    9.3072   12.5541 C   0  0  0  0  0  0  0  0  0  0  0  0
   14.3411    9.4334   14.3048 Br  0  0  0  0  0  0  0  0  0  0  0  0
   15.8788   10.2847   12.1721 C   0  0  0  0  0  0  0  0  0  0  0  0
   16.3667   10.2925   10.8799 C   0  0  0  0  0  0  0  0  0  0  0  0
   17.4919   11.0719   10.5390 N   0  0  0  0  0  0  0  0  0  0  0  0
   17.9868   12.1214   11.2941 C   0  0  0  0  0  0  0  0  0  0  0  0
   17.2820   12.7536   12.0852 O   0  0  0  0  0  0  0  0  0  0  0  0
   19.4663   12.5113   11.0694 C   0  0  2  0  0  0  0  0  0  0  0  0
   20.3595   11.3128   10.7229 C   0  0  0  0  0  0  0  0  0  0  0  0
   21.7928   11.6092   10.6724 N   0  0  0  0  0  0  0  0  0  0  0  0
   22.1886   12.2787   11.9195 C   0  0  0  0  0  0  0  0  0  0  0  0
   21.3024   13.4915   12.2256 C   0  0  0  0  0  0  0  0  0  0  0  0
   19.9207   13.1285   12.2868 O   0  0  0  0  0  0  0  0  0  0  0  0
  1  2  1  0
  2  3  2  0
  3  4  1  0
  4  5  2  0
  5  6  1  0
  5  7  1  0
  7  8  2  0
  8  9  1  0
  9 10  1  0
 10 11  2  0
 12 10  1  1
 12 13  1  0
 13 14  1  0
 14 15  1  0
 15 16  1  0
 16 17  1  0
  8  2  1  0
 17 12  1  0
M  END
>  <ref_pdb>  (291) 
c0270a

>  <inchikey>  (291) 
NYILPPPJQBQITB-JTQLQIEISA-N

>  <original ID>  (291) 
NYILPPPJQBQITB-JTQLQIEISA-N

>  <generation_date>  (291) 
None

>  <alias>  (291) 
None

>  <tags>  (291) 
[]

>  <ref_mols>  (291) 
c0692a,c1116a

>  <ref_url>  (291) 
None

>  <submitter_name>  (291) 
None

>  <exports>  (291) 
nan

>  <original SMILES>  (291) 
Nc1ccc(Br)cc1NC(=O)[C@@H]1CNCCO1

>  <method>  (291) 
None

>  <submitter_email>  (291) 
None

>  <HIPPO ID>  (291) 
112101

$$$$
NYILPPPJQBQITB-SNVBAGLBSA-N
     RDKit          3D

 17 18  0  0  0  0  0  0  0  0999 V2000
   16.2490    9.4788    8.6228 N   0  0  0  0  0  0  0  0  0  0  0  0
   15.8584    9.4767    9.9562 C   0  0  0  0  0  0  0  0  0  0  0  0
   15.0135    8.4431   10.3651 C   0  0  0  0  0  0  0  0  0  0  0  0
   14.6123    8.3610   11.6883 C   0  0  0  0  0  0  0  0  0  0  0  0
   15.0040    9.3631   12.5663 C   0  0  0  0  0  0  0  0  0  0  0  0
   14.3420    9.4915   14.3089 Br  0  0  0  0  0  0  0  0  0  0  0  0
   15.9111   10.3362   12.1941 C   0  0  0  0  0  0  0  0  0  0  0  0
   16.4180   10.3476   10.9083 C   0  0  0  0  0  0  0  0  0  0  0  0
   17.5556   11.1263   10.5861 N   0  0  0  0  0  0  0  0  0  0  0  0
   18.0949   12.1260   11.3777 C   0  0  0  0  0  0  0  0  0  0  0  0
   17.4449   12.7250   12.2405 O   0  0  0  0  0  0  0  0  0  0  0  0
   19.5792   12.5179   11.1622 C   0  0  1  0  0  0  0  0  0  0  0  0
   20.4901   11.3567   10.7082 C   0  0  0  0  0  0  0  0  0  0  0  0
   21.7925   11.7731   10.1923 N   0  0  0  0  0  0  0  0  0  0  0  0
   22.1549   13.1053   10.6486 C   0  0  0  0  0  0  0  0  0  0  0  0
   21.0782   14.1375   10.2620 C   0  0  0  0  0  0  0  0  0  0  0  0
   19.7240   13.6546   10.3114 O   0  0  0  0  0  0  0  0  0  0  0  0
  1  2  1  0
  2  3  2  0
  3  4  1  0
  4  5  2  0
  5  6  1  0
  5  7  1  0
  7  8  2  0
  8  9  1  0
  9 10  1  0
 10 11  2  0
 12 10  1  6
 12 13  1  0
 13 14  1  0
 14 15  1  0
 15 16  1  0
 16 17  1  0
  8  2  1  0
 17 12  1  0
M  END
>  <ref_pdb>  (292) 
c0270a

>  <inchikey>  (292) 
NYILPPPJQBQITB-SNVBAGLBSA-N

>  <original ID>  (292) 
NYILPPPJQBQITB-SNVBAGLBSA-N

>  <generation_date>  (292) 
None

>  <alias>  (292) 
None

>  <tags>  (292) 
[]

>  <ref_mols>  (292) 
c0692a,c1116a

>  <ref_url>  (292) 
None

>  <submitter_name>  (292) 
None

>  <exports>  (292) 
nan

>  <original SMILES>  (292) 
Nc1ccc(Br)cc1NC(=O)[C@H]1CNCCO1

>  <method>  (292) 
None

>  <submitter_email>  (292) 
None

>  <HIPPO ID>  (292) 
112102

$$$$
WUCKOVOZHPUQOK-VIFPVBQESA-N
     RDKit          3D

 17 18  0  0  0  0  0  0  0  0999 V2000
   16.0505   10.9407   13.1722 N   0  0  0  0  0  0  0  0  0  0  0  0
   15.7395   10.2025   12.0003 C   0  0  0  0  0  0  0  0  0  0  0  0
   14.8474    9.1545   12.2068 C   0  0  0  0  0  0  0  0  0  0  0  0
   14.2711    9.1188   13.4444 O   0  0  0  0  0  0  0  0  0  0  0  0
   14.5047    8.2391   11.2282 C   0  0  0  0  0  0  0  0  0  0  0  0
   15.0257    8.4161    9.9616 C   0  0  0  0  0  0  0  0  0  0  0  0
   15.9949    9.3968    9.7467 C   0  0  0  0  0  0  0  0  0  0  0  0
   16.4112   10.2535   10.7804 C   0  0  0  0  0  0  0  0  0  0  0  0
   17.5711   11.0200   10.5350 N   0  0  0  0  0  0  0  0  0  0  0  0
   18.0139   12.1131   11.2486 C   0  0  0  0  0  0  0  0  0  0  0  0
   17.2786   12.7689   11.9924 O   0  0  0  0  0  0  0  0  0  0  0  0
   19.4798   12.5358   11.0344 C   0  0  2  0  0  0  0  0  0  0  0  0
   20.4372   11.3754   10.7206 C   0  0  0  0  0  0  0  0  0  0  0  0
   21.8200   11.8438   10.5757 N   0  0  0  0  0  0  0  0  0  0  0  0
   22.2101   12.5323   11.8166 C   0  0  0  0  0  0  0  0  0  0  0  0
   21.2422   13.6793   12.1349 C   0  0  0  0  0  0  0  0  0  0  0  0
   19.8942   13.2088   12.2377 O   0  0  0  0  0  0  0  0  0  0  0  0
  1  2  1  0
  2  3  2  0
  3  4  1  0
  3  5  1  0
  5  6  2  0
  6  7  1  0
  7  8  2  0
  8  9  1  0
  9 10  1  0
 10 11  2  0
 12 10  1  1
 12 13  1  0
 13 14  1  0
 14 15  1  0
 15 16  1  0
 16 17  1  0
  8  2  1  0
 17 12  1  0
M  END
>  <ref_pdb>  (293) 
c0270a

>  <inchikey>  (293) 
WUCKOVOZHPUQOK-VIFPVBQESA-N

>  <original ID>  (293) 
WUCKOVOZHPUQOK-VIFPVBQESA-N

>  <generation_date>  (293) 
None

>  <alias>  (293) 
None

>  <tags>  (293) 
[]

>  <ref_mols>  (293) 
c0692a,c1116a

>  <ref_url>  (293) 
None

>  <submitter_name>  (293) 
None

>  <exports>  (293) 
nan

>  <original SMILES>  (293) 
Nc1c(O)cccc1NC(=O)[C@@H]1CNCCO1

>  <method>  (293) 
None

>  <submitter_email>  (293) 
None

>  <HIPPO ID>  (293) 
112125

$$$$
WUCKOVOZHPUQOK-SECBINFHSA-N
     RDKit          3D

 17 18  0  0  0  0  0  0  0  0999 V2000
   16.3707   11.2034   13.1728 N   0  0  0  0  0  0  0  0  0  0  0  0
   15.9422   10.4548   12.0558 C   0  0  0  0  0  0  0  0  0  0  0  0
   14.9320    9.5163   12.2531 C   0  0  0  0  0  0  0  0  0  0  0  0
   14.1855    9.6297   13.3910 O   0  0  0  0  0  0  0  0  0  0  0  0
   14.6071    8.5391   11.3181 C   0  0  0  0  0  0  0  0  0  0  0  0
   15.1973    8.5834   10.0716 C   0  0  0  0  0  0  0  0  0  0  0  0
   16.2097    9.5083    9.8385 C   0  0  0  0  0  0  0  0  0  0  0  0
   16.6380   10.3995   10.8397 C   0  0  0  0  0  0  0  0  0  0  0  0
   17.8445   11.0962   10.5896 N   0  0  0  0  0  0  0  0  0  0  0  0
   18.2763   12.2420   11.2223 C   0  0  0  0  0  0  0  0  0  0  0  0
   17.5123   13.0102   11.8209 O   0  0  0  0  0  0  0  0  0  0  0  0
   19.7783   12.5922   11.1259 C   0  0  1  0  0  0  0  0  0  0  0  0
   20.7109   11.4120   10.8084 C   0  0  0  0  0  0  0  0  0  0  0  0
   22.1253   11.7967   10.8804 N   0  0  0  0  0  0  0  0  0  0  0  0
   22.3848   12.9882   10.0603 C   0  0  0  0  0  0  0  0  0  0  0  0
   21.3706   14.1173   10.3164 C   0  0  0  0  0  0  0  0  0  0  0  0
   20.0096   13.6652   10.1981 O   0  0  0  0  0  0  0  0  0  0  0  0
  1  2  1  0
  2  3  2  0
  3  4  1  0
  3  5  1  0
  5  6  2  0
  6  7  1  0
  7  8  2  0
  8  9  1  0
  9 10  1  0
 10 11  2  0
 12 10  1  6
 12 13  1  0
 13 14  1  0
 14 15  1  0
 15 16  1  0
 16 17  1  0
  8  2  1  0
 17 12  1  0
M  END
>  <ref_pdb>  (294) 
c0270a

>  <inchikey>  (294) 
WUCKOVOZHPUQOK-SECBINFHSA-N

>  <original ID>  (294) 
WUCKOVOZHPUQOK-SECBINFHSA-N

>  <generation_date>  (294) 
None

>  <alias>  (294) 
None

>  <tags>  (294) 
[]

>  <ref_mols>  (294) 
c0692a,c1116a

>  <ref_url>  (294) 
None

>  <submitter_name>  (294) 
None

>  <exports>  (294) 
nan

>  <original SMILES>  (294) 
Nc1c(O)cccc1NC(=O)[C@H]1CNCCO1

>  <method>  (294) 
None

>  <submitter_email>  (294) 
None

>  <HIPPO ID>  (294) 
112126

$$$$
FGRFEFUBCMPGIU-UHFFFAOYSA-N
     RDKit          3D

 17 17  0  0  0  0  0  0  0  0999 V2000
   14.7874    8.4563    9.0333 C   0  0  0  0  0  0  0  0  0  0  0  0
   15.7960    9.5025    9.0488 N   0  0  0  0  0  0  0  0  0  0  0  0
   15.5390   10.3918   10.0807 C   0  0  0  0  0  0  0  0  0  0  0  0
   14.2792   10.9670   10.1303 C   0  0  0  0  0  0  0  0  0  0  0  0
   13.8827   11.7610   11.1881 C   0  0  0  0  0  0  0  0  0  0  0  0
   14.6706   11.7892   12.3121 C   0  0  0  0  0  0  0  0  0  0  0  0
   14.1826   12.8170   13.7836 Br  0  0  0  0  0  0  0  0  0  0  0  0
   15.9190   11.2153   12.3001 C   0  0  0  0  0  0  0  0  0  0  0  0
   16.4165   10.7357   11.0944 C   0  0  0  0  0  0  0  0  0  0  0  0
   17.7922   10.8989   10.8469 N   0  0  0  0  0  0  0  0  0  0  0  0
   18.3746   12.1042   11.2611 C   0  0  0  0  0  0  0  0  0  0  0  0
   17.7879   13.0214   11.8415 O   0  0  0  0  0  0  0  0  0  0  0  0
   19.8468   12.2598   10.9637 C   0  0  0  0  0  0  0  0  0  0  0  0
   20.3785   11.0844   10.3880 O   0  0  0  0  0  0  0  0  0  0  0  0
   21.7456   10.8922   10.7447 C   0  0  0  0  0  0  0  0  0  0  0  0
   22.6963   11.7378    9.9292 C   0  0  0  0  0  0  0  0  0  0  0  0
   24.1277   12.4017   11.0646 Br  0  0  0  0  0  0  0  0  0  0  0  0
  1  2  1  0
  2  3  1  0
  3  4  2  0
  4  5  1  0
  5  6  2  0
  6  7  1  0
  6  8  1  0
  8  9  2  0
  9 10  1  0
 10 11  1  0
 11 12  2  0
 11 13  1  0
 13 14  1  0
 14 15  1  0
 15 16  1  0
 16 17  1  0
  9  3  1  0
M  END
>  <ref_pdb>  (295) 
c0270a

>  <inchikey>  (295) 
FGRFEFUBCMPGIU-UHFFFAOYSA-N

>  <original ID>  (295) 
FGRFEFUBCMPGIU-UHFFFAOYSA-N

>  <generation_date>  (295) 
None

>  <alias>  (295) 
None

>  <tags>  (295) 
[]

>  <ref_mols>  (295) 
c0692a,c1116a

>  <ref_url>  (295) 
None

>  <submitter_name>  (295) 
None

>  <exports>  (295) 
['/opt/xchem-fragalysis-2/maxwin/CHIKV_HIPPO/hippo_prod/CHIKV_prod11_recipes/Recipe_1GERJCJ_poses.sdf']

>  <original SMILES>  (295) 
CNc1ccc(Br)cc1NC(=O)COCCBr

>  <method>  (295) 
None

>  <submitter_email>  (295) 
None

>  <HIPPO ID>  (295) 
112157

$$$$
GVENKBOUGLNPDK-UHFFFAOYSA-N
     RDKit          3D

 17 17  0  0  0  0  0  0  0  0999 V2000
   14.2799    9.1063   14.0039 C   0  0  0  0  0  0  0  0  0  0  0  0
   14.7962    9.0767   12.6085 C   0  0  0  0  0  0  0  0  0  0  0  0
   15.6578   10.1275   12.2873 C   0  0  0  0  0  0  0  0  0  0  0  0
   16.2253   10.2158   11.0296 C   0  0  0  0  0  0  0  0  0  0  0  0
   17.3194   11.0628   10.7763 N   0  0  0  0  0  0  0  0  0  0  0  0
   17.7504   12.0828   11.5911 C   0  0  0  0  0  0  0  0  0  0  0  0
   17.0810   12.6315   12.4656 O   0  0  0  0  0  0  0  0  0  0  0  0
   19.1814   12.5376   11.3500 C   0  0  0  0  0  0  0  0  0  0  0  0
   19.9088   11.7251   10.4504 O   0  0  0  0  0  0  0  0  0  0  0  0
   21.3328   11.7453   10.6281 C   0  0  0  0  0  0  0  0  0  0  0  0
   21.9821   13.0903   10.9478 C   0  0  0  0  0  0  0  0  0  0  0  0
   21.4732   14.4999    9.6989 Br  0  0  0  0  0  0  0  0  0  0  0  0
   15.7924    9.3421   10.0307 C   0  0  0  0  0  0  0  0  0  0  0  0
   16.3441    9.3601    8.7710 N   0  0  0  0  0  0  0  0  0  0  0  0
   14.9521    8.2778   10.3477 C   0  0  0  0  0  0  0  0  0  0  0  0
   14.4910    8.1127   11.6402 C   0  0  0  0  0  0  0  0  0  0  0  0
   13.5151    6.7175   11.9330 Cl  0  0  0  0  0  0  0  0  0  0  0  0
  1  2  1  0
  2  3  2  0
  3  4  1  0
  4  5  1  0
  5  6  1  0
  6  7  2  0
  6  8  1  0
  8  9  1  0
  9 10  1  0
 10 11  1  0
 11 12  1  0
  4 13  2  0
 13 14  1  0
 13 15  1  0
 15 16  2  0
 16 17  1  0
 16  2  1  0
M  END
>  <ref_pdb>  (296) 
c0270a

>  <inchikey>  (296) 
GVENKBOUGLNPDK-UHFFFAOYSA-N

>  <original ID>  (296) 
GVENKBOUGLNPDK-UHFFFAOYSA-N

>  <generation_date>  (296) 
None

>  <alias>  (296) 
None

>  <tags>  (296) 
[]

>  <ref_mols>  (296) 
c0692a,c1116a

>  <ref_url>  (296) 
None

>  <submitter_name>  (296) 
None

>  <exports>  (296) 
nan

>  <original SMILES>  (296) 
Cc1cc(NC(=O)COCCBr)c(N)cc1Cl

>  <method>  (296) 
None

>  <submitter_email>  (296) 
None

>  <HIPPO ID>  (296) 
112160

$$$$
IHTJDWRVVKVVHZ-UHFFFAOYSA-N
     RDKit          3D

 17 17  0  0  0  0  0  0  0  0999 V2000
   16.2857    9.2921    8.8031 N   0  0  0  0  0  0  0  0  0  0  0  0
   15.8386    9.3468   10.1114 C   0  0  0  0  0  0  0  0  0  0  0  0
   14.9602    8.3440   10.5295 C   0  0  0  0  0  0  0  0  0  0  0  0
   14.5425    8.2991   11.8458 C   0  0  0  0  0  0  0  0  0  0  0  0
   14.9488    9.3050   12.7143 C   0  0  0  0  0  0  0  0  0  0  0  0
   14.2402    9.4217   14.4443 Br  0  0  0  0  0  0  0  0  0  0  0  0
   15.9009   10.2416   12.3398 C   0  0  0  0  0  0  0  0  0  0  0  0
   16.4433   11.0435   13.3069 O   0  0  0  0  0  0  0  0  0  0  0  0
   16.3995   10.2339   11.0439 C   0  0  0  0  0  0  0  0  0  0  0  0
   17.5427   10.9710   10.6727 N   0  0  0  0  0  0  0  0  0  0  0  0
   17.9697   12.1393   11.2645 C   0  0  0  0  0  0  0  0  0  0  0  0
   17.2298   12.9773   11.7835 O   0  0  0  0  0  0  0  0  0  0  0  0
   19.4731   12.4024   11.1568 C   0  0  0  0  0  0  0  0  0  0  0  0
   20.2411   11.2414   10.8847 O   0  0  0  0  0  0  0  0  0  0  0  0
   21.6147   11.4913   10.5649 C   0  0  0  0  0  0  0  0  0  0  0  0
   22.4146   12.3143   11.5618 C   0  0  0  0  0  0  0  0  0  0  0  0
   22.9646   11.2461   13.0800 Br  0  0  0  0  0  0  0  0  0  0  0  0
  1  2  1  0
  2  3  2  0
  3  4  1  0
  4  5  2  0
  5  6  1  0
  5  7  1  0
  7  8  1  0
  7  9  2  0
  9 10  1  0
 10 11  1  0
 11 12  2  0
 11 13  1  0
 13 14  1  0
 14 15  1  0
 15 16  1  0
 16 17  1  0
  9  2  1  0
M  END
>  <ref_pdb>  (297) 
c0270a

>  <inchikey>  (297) 
IHTJDWRVVKVVHZ-UHFFFAOYSA-N

>  <original ID>  (297) 
IHTJDWRVVKVVHZ-UHFFFAOYSA-N

>  <generation_date>  (297) 
None

>  <alias>  (297) 
None

>  <tags>  (297) 
[]

>  <ref_mols>  (297) 
c0692a,c1116a

>  <ref_url>  (297) 
None

>  <submitter_name>  (297) 
None

>  <exports>  (297) 
nan

>  <original SMILES>  (297) 
Nc1ccc(Br)c(O)c1NC(=O)COCCBr

>  <method>  (297) 
None

>  <submitter_email>  (297) 
None

>  <HIPPO ID>  (297) 
112171

$$$$
PAVUAZWEWYAGKC-UHFFFAOYSA-N
     RDKit          3D

 17 17  0  0  0  0  0  0  0  0999 V2000
   14.3918    9.2194   13.8675 C   0  0  0  0  0  0  0  0  0  0  0  0
   14.8858    9.1548   12.4641 C   0  0  0  0  0  0  0  0  0  0  0  0
   15.7592   10.1914   12.1138 C   0  0  0  0  0  0  0  0  0  0  0  0
   16.2910   10.2547   10.8411 C   0  0  0  0  0  0  0  0  0  0  0  0
   17.4273   11.0318   10.5525 N   0  0  0  0  0  0  0  0  0  0  0  0
   17.9866   12.0127   11.3496 C   0  0  0  0  0  0  0  0  0  0  0  0
   17.3700   12.6785   12.1792 O   0  0  0  0  0  0  0  0  0  0  0  0
   19.4822   12.2407   11.0897 C   0  0  0  0  0  0  0  0  0  0  0  0
   20.0861   10.9749   10.8859 O   0  0  0  0  0  0  0  0  0  0  0  0
   21.3959   10.9377   10.3308 C   0  0  0  0  0  0  0  0  0  0  0  0
   22.4464   11.8308   10.9261 C   0  0  0  0  0  0  0  0  0  0  0  0
   22.9170   11.1579   12.6856 Br  0  0  0  0  0  0  0  0  0  0  0  0
   15.7814    9.4071    9.8511 C   0  0  0  0  0  0  0  0  0  0  0  0
   16.2316    9.4596    8.5387 N   0  0  0  0  0  0  0  0  0  0  0  0
   14.9598    8.3433   10.1984 C   0  0  0  0  0  0  0  0  0  0  0  0
   14.5519    8.1796   11.5112 C   0  0  0  0  0  0  0  0  0  0  0  0
   13.5375    6.6106   11.8664 Br  0  0  0  0  0  0  0  0  0  0  0  0
  1  2  1  0
  2  3  2  0
  3  4  1  0
  4  5  1  0
  5  6  1  0
  6  7  2  0
  6  8  1  0
  8  9  1  0
  9 10  1  0
 10 11  1  0
 11 12  1  0
  4 13  2  0
 13 14  1  0
 13 15  1  0
 15 16  2  0
 16 17  1  0
 16  2  1  0
M  END
>  <ref_pdb>  (298) 
c0270a

>  <inchikey>  (298) 
PAVUAZWEWYAGKC-UHFFFAOYSA-N

>  <original ID>  (298) 
PAVUAZWEWYAGKC-UHFFFAOYSA-N

>  <generation_date>  (298) 
None

>  <alias>  (298) 
None

>  <tags>  (298) 
[]

>  <ref_mols>  (298) 
c0692a,c1116a

>  <ref_url>  (298) 
None

>  <submitter_name>  (298) 
None

>  <exports>  (298) 
nan

>  <original SMILES>  (298) 
Cc1cc(NC(=O)COCCBr)c(N)cc1Br

>  <method>  (298) 
None

>  <submitter_email>  (298) 
None

>  <HIPPO ID>  (298) 
112173

$$$$
HRQJSIGOXWYUBM-UHFFFAOYSA-N
     RDKit          3D

 17 17  0  0  0  0  0  0  0  0999 V2000
   18.5385   10.4726   10.4082 C   0  0  0  0  0  0  0  0  0  0  0  0
   17.4753   11.3490   10.8307 N   0  0  0  0  0  0  0  0  0  0  0  0
   17.7918   12.5444   11.4728 C   0  0  0  0  0  0  0  0  0  0  0  0
   16.9408   13.2709   12.0005 O   0  0  0  0  0  0  0  0  0  0  0  0
   19.2796   12.9804   11.5236 C   0  0  0  0  0  0  0  0  0  0  0  0
   20.0301   12.5939   10.3919 O   0  0  0  0  0  0  0  0  0  0  0  0
   21.4267   12.3930   10.5978 C   0  0  0  0  0  0  0  0  0  0  0  0
   22.1571   13.5807   10.0107 C   0  0  0  0  0  0  0  0  0  0  0  0
   24.0033   13.1474    9.6655 Br  0  0  0  0  0  0  0  0  0  0  0  0
   16.2347   10.6455   10.9869 C   0  0  0  0  0  0  0  0  0  0  0  0
   15.7935    9.8344    9.9120 C   0  0  0  0  0  0  0  0  0  0  0  0
   14.9570    8.7446   10.1151 C   0  0  0  0  0  0  0  0  0  0  0  0
   14.5778    8.4409   11.4096 C   0  0  0  0  0  0  0  0  0  0  0  0
   14.9081    9.3189   12.4501 C   0  0  0  0  0  0  0  0  0  0  0  0
   14.3091    8.9567   14.2005 Br  0  0  0  0  0  0  0  0  0  0  0  0
   15.6722   10.4747   12.2563 C   0  0  0  0  0  0  0  0  0  0  0  0
   16.1025   11.2245   13.3832 N   0  0  0  0  0  0  0  0  0  0  0  0
  1  2  1  0
  2  3  1  0
  3  4  2  0
  3  5  1  0
  5  6  1  0
  6  7  1  0
  7  8  1  0
  8  9  1  0
  2 10  1  0
 10 11  2  0
 11 12  1  0
 12 13  2  0
 13 14  1  0
 14 15  1  0
 14 16  2  0
 16 17  1  0
 16 10  1  0
M  END
>  <ref_pdb>  (299) 
c0270a

>  <inchikey>  (299) 
HRQJSIGOXWYUBM-UHFFFAOYSA-N

>  <original ID>  (299) 
HRQJSIGOXWYUBM-UHFFFAOYSA-N

>  <generation_date>  (299) 
None

>  <alias>  (299) 
None

>  <tags>  (299) 
[]

>  <ref_mols>  (299) 
c0692a,c1116a

>  <ref_url>  (299) 
None

>  <submitter_name>  (299) 
None

>  <exports>  (299) 
nan

>  <original SMILES>  (299) 
CN(C(=O)COCCBr)c1cccc(Br)c1N

>  <method>  (299) 
None

>  <submitter_email>  (299) 
None

>  <HIPPO ID>  (299) 
112174

$$$$
HKMBSOCPNZCZQJ-UHFFFAOYSA-N
     RDKit          3D

 17 17  0  0  0  0  0  0  0  0999 V2000
   13.6770    6.9830   11.9849 C   0  0  0  0  0  0  0  0  0  0  0  0
   14.4885    8.1913   11.6318 C   0  0  0  0  0  0  0  0  0  0  0  0
   15.0022    8.2958   10.3538 C   0  0  0  0  0  0  0  0  0  0  0  0
   15.8448    9.3548   10.0199 C   0  0  0  0  0  0  0  0  0  0  0  0
   16.4086    9.3389    8.7658 N   0  0  0  0  0  0  0  0  0  0  0  0
   16.2688   10.2652   10.9960 C   0  0  0  0  0  0  0  0  0  0  0  0
   17.4080   11.0547   10.7335 N   0  0  0  0  0  0  0  0  0  0  0  0
   17.8580   12.1040   11.5009 C   0  0  0  0  0  0  0  0  0  0  0  0
   17.1688   12.7300   12.3058 O   0  0  0  0  0  0  0  0  0  0  0  0
   19.3156   12.5087   11.2655 C   0  0  0  0  0  0  0  0  0  0  0  0
   20.1472   11.4482   10.8221 O   0  0  0  0  0  0  0  0  0  0  0  0
   21.4937   11.8555   10.5352 C   0  0  0  0  0  0  0  0  0  0  0  0
   22.3073   12.4074   11.7023 C   0  0  0  0  0  0  0  0  0  0  0  0
   22.7244   11.1558   12.8767 Cl  0  0  0  0  0  0  0  0  0  0  0  0
   15.6385   10.2643   12.2228 C   0  0  0  0  0  0  0  0  0  0  0  0
   14.7614    9.2367   12.5200 C   0  0  0  0  0  0  0  0  0  0  0  0
   14.1382    9.3199   13.6943 F   0  0  0  0  0  0  0  0  0  0  0  0
  1  2  1  0
  2  3  2  0
  3  4  1  0
  4  5  1  0
  4  6  2  0
  6  7  1  0
  7  8  1  0
  8  9  2  0
  8 10  1  0
 10 11  1  0
 11 12  1  0
 12 13  1  0
 13 14  1  0
  6 15  1  0
 15 16  2  0
 16 17  1  0
 16  2  1  0
M  END
>  <ref_pdb>  (300) 
c0270a

>  <inchikey>  (300) 
HKMBSOCPNZCZQJ-UHFFFAOYSA-N

>  <original ID>  (300) 
HKMBSOCPNZCZQJ-UHFFFAOYSA-N

>  <generation_date>  (300) 
None

>  <alias>  (300) 
None

>  <tags>  (300) 
[]

>  <ref_mols>  (300) 
c0692a,c1116a

>  <ref_url>  (300) 
None

>  <submitter_name>  (300) 
None

>  <exports>  (300) 
nan

>  <original SMILES>  (300) 
Cc1cc(N)c(NC(=O)COCCCl)cc1F

>  <method>  (300) 
None

>  <submitter_email>  (300) 
None

>  <HIPPO ID>  (300) 
112180

$$$$
YQRJYZKDWYWGJC-UHFFFAOYSA-N
     RDKit          3D

 17 18  0  0  0  0  0  0  0  0999 V2000
   13.9742   12.5133   10.8184 O   0  0  0  0  0  0  0  0  0  0  0  0
   14.1777   12.1975   11.9961 C   0  0  0  0  0  0  0  0  0  0  0  0
   14.3838   13.3119   13.0431 C   0  0  0  0  0  0  0  0  0  0  0  0
   15.5986   13.2543   13.7908 O   0  0  0  0  0  0  0  0  0  0  0  0
   16.3381   14.4779   13.8281 C   0  0  0  0  0  0  0  0  0  0  0  0
   17.1410   14.6614   12.5631 C   0  0  0  0  0  0  0  0  0  0  0  0
   18.8200   13.6978   12.5502 Br  0  0  0  0  0  0  0  0  0  0  0  0
   14.2467   10.8430   12.4389 N   0  0  0  0  0  0  0  0  0  0  0  0
   14.6711   10.5766   13.8139 C   0  0  0  0  0  0  0  0  0  0  0  0
   16.1984   10.4858   13.9511 C   0  0  0  0  0  0  0  0  0  0  0  0
   16.9436   10.8927   12.7415 N   0  0  0  0  0  0  0  0  0  0  0  0
   16.3794   10.3025   11.5855 C   0  0  0  0  0  0  0  0  0  0  0  0
   17.0926   10.1241   10.4244 C   0  0  0  0  0  0  0  0  0  0  0  0
   16.4799    9.4939    9.3388 C   0  0  0  0  0  0  0  0  0  0  0  0
   15.2180    8.9648    9.4167 C   0  0  0  0  0  0  0  0  0  0  0  0
   14.4978    9.2079   10.5492 C   0  0  0  0  0  0  0  0  0  0  0  0
   15.0151   10.0348   11.5377 C   0  0  0  0  0  0  0  0  0  0  0  0
  1  2  2  0
  2  3  1  0
  3  4  1  0
  4  5  1  0
  5  6  1  0
  6  7  1  0
  2  8  1  0
  8  9  1  0
  9 10  1  0
 10 11  1  0
 11 12  1  0
 12 13  2  0
 13 14  1  0
 14 15  2  0
 15 16  1  0
 16 17  2  0
 17  8  1  0
 17 12  1  0
M  END
>  <ref_pdb>  (301) 
c0270a

>  <inchikey>  (301) 
YQRJYZKDWYWGJC-UHFFFAOYSA-N

>  <original ID>  (301) 
YQRJYZKDWYWGJC-UHFFFAOYSA-N

>  <generation_date>  (301) 
None

>  <alias>  (301) 
None

>  <tags>  (301) 
[]

>  <ref_mols>  (301) 
c0692a,c1116a

>  <ref_url>  (301) 
None

>  <submitter_name>  (301) 
None

>  <exports>  (301) 
nan

>  <original SMILES>  (301) 
O=C(COCCBr)N1CCNc2ccccc21

>  <method>  (301) 
None

>  <submitter_email>  (301) 
None

>  <HIPPO ID>  (301) 
112202

$$$$
QCFMJIGZIHFMFK-UHFFFAOYSA-N
     RDKit          3D

 17 17  0  0  0  0  0  0  0  0999 V2000
   16.0548   10.8990   13.3344 N   0  0  0  0  0  0  0  0  0  0  0  0
   15.7121   10.1727   12.1624 C   0  0  0  0  0  0  0  0  0  0  0  0
   14.8100    9.1218   12.3257 C   0  0  0  0  0  0  0  0  0  0  0  0
   14.1634    9.0748   13.4928 F   0  0  0  0  0  0  0  0  0  0  0  0
   14.4938    8.2120   11.3248 C   0  0  0  0  0  0  0  0  0  0  0  0
   15.0430    8.3992   10.0774 C   0  0  0  0  0  0  0  0  0  0  0  0
   15.9900    9.4023    9.9008 C   0  0  0  0  0  0  0  0  0  0  0  0
   16.5259    9.4903    8.6855 F   0  0  0  0  0  0  0  0  0  0  0  0
   16.3834   10.2727   10.9365 C   0  0  0  0  0  0  0  0  0  0  0  0
   17.4999   11.1310   10.7412 N   0  0  0  0  0  0  0  0  0  0  0  0
   17.7164   12.3118   11.4178 C   0  0  0  0  0  0  0  0  0  0  0  0
   16.8439   12.9305   12.0367 O   0  0  0  0  0  0  0  0  0  0  0  0
   19.1356   12.8663   11.4288 C   0  0  0  0  0  0  0  0  0  0  0  0
   19.9721   12.4800   10.3697 O   0  0  0  0  0  0  0  0  0  0  0  0
   21.3207   12.9524   10.5496 C   0  0  0  0  0  0  0  0  0  0  0  0
   22.1298   12.0361   11.4439 C   0  0  0  0  0  0  0  0  0  0  0  0
   21.9444   10.4107   10.8347 Cl  0  0  0  0  0  0  0  0  0  0  0  0
  1  2  1  0
  2  3  2  0
  3  4  1  0
  3  5  1  0
  5  6  2  0
  6  7  1  0
  7  8  1  0
  7  9  2  0
  9 10  1  0
 10 11  1  0
 11 12  2  0
 11 13  1  0
 13 14  1  0
 14 15  1  0
 15 16  1  0
 16 17  1  0
  9  2  1  0
M  END
>  <ref_pdb>  (302) 
c0270a

>  <inchikey>  (302) 
QCFMJIGZIHFMFK-UHFFFAOYSA-N

>  <original ID>  (302) 
QCFMJIGZIHFMFK-UHFFFAOYSA-N

>  <generation_date>  (302) 
None

>  <alias>  (302) 
None

>  <tags>  (302) 
[]

>  <ref_mols>  (302) 
c0692a,c1116a

>  <ref_url>  (302) 
None

>  <submitter_name>  (302) 
None

>  <exports>  (302) 
nan

>  <original SMILES>  (302) 
Nc1c(F)ccc(F)c1NC(=O)COCCCl

>  <method>  (302) 
None

>  <submitter_email>  (302) 
None

>  <HIPPO ID>  (302) 
112207

$$$$
KCEABFDGOAFJOU-QMMMGPOBSA-N
     RDKit          3D

 17 17  0  0  0  0  0  0  0  0999 V2000
   21.4364   11.3499   10.3293 C   0  0  0  0  0  0  0  0  0  0  0  0
   20.0185   11.3037   10.4787 O   0  0  0  0  0  0  0  0  0  0  0  0
   19.4546   12.4495   11.1278 C   0  0  2  0  0  0  0  0  0  0  0  0
   20.1745   12.9452   12.3828 C   0  0  0  0  0  0  0  0  0  0  0  0
   21.2062   12.4868   12.8465 O   0  0  0  0  0  0  0  0  0  0  0  0
   19.6209   14.0215   12.9687 O   0  0  0  0  0  0  0  0  0  0  0  0
   17.9727   12.1327   11.4107 C   0  0  0  0  0  0  0  0  0  0  0  0
   17.3023   12.7669   12.2231 O   0  0  0  0  0  0  0  0  0  0  0  0
   17.4607   11.0927   10.6515 N   0  0  0  0  0  0  0  0  0  0  0  0
   16.3246   10.3174   10.9569 C   0  0  0  0  0  0  0  0  0  0  0  0
   15.7068   10.3957   12.1895 C   0  0  0  0  0  0  0  0  0  0  0  0
   14.8133    9.4123   12.5460 C   0  0  0  0  0  0  0  0  0  0  0  0
   14.1550    9.5812   13.6912 F   0  0  0  0  0  0  0  0  0  0  0  0
   14.5409    8.3217   11.7277 C   0  0  0  0  0  0  0  0  0  0  0  0
   15.0318    8.3242   10.4367 C   0  0  0  0  0  0  0  0  0  0  0  0
   15.9089    9.3333   10.0412 C   0  0  0  0  0  0  0  0  0  0  0  0
   16.2169    9.4249    8.6970 N   0  0  0  0  0  0  0  0  0  0  0  0
  1  2  1  0
  3  2  1  1
  3  4  1  0
  4  5  2  0
  4  6  1  0
  3  7  1  0
  7  8  2  0
  7  9  1  0
  9 10  1  0
 10 11  2  0
 11 12  1  0
 12 13  1  0
 12 14  2  0
 14 15  1  0
 15 16  2  0
 16 17  1  0
 16 10  1  0
M  END
>  <ref_pdb>  (303) 
c0270a

>  <inchikey>  (303) 
KCEABFDGOAFJOU-QMMMGPOBSA-N

>  <original ID>  (303) 
KCEABFDGOAFJOU-QMMMGPOBSA-N

>  <generation_date>  (303) 
None

>  <alias>  (303) 
None

>  <tags>  (303) 
[]

>  <ref_mols>  (303) 
c0692a,c1116a

>  <ref_url>  (303) 
None

>  <submitter_name>  (303) 
None

>  <exports>  (303) 
['/opt/xchem-fragalysis-2/maxwin/CHIKV_HIPPO/hippo_prod/CHIKV_prod11_recipes/Recipe_1GERJCJ_poses.sdf']

>  <original SMILES>  (303) 
CO[C@H](C(=O)O)C(=O)Nc1cc(F)ccc1N

>  <method>  (303) 
None

>  <submitter_email>  (303) 
None

>  <HIPPO ID>  (303) 
112215

$$$$
KCEABFDGOAFJOU-MRVPVSSYSA-N
     RDKit          3D

 17 17  0  0  0  0  0  0  0  0999 V2000
   21.5249   11.3675   10.5021 C   0  0  0  0  0  0  0  0  0  0  0  0
   20.1066   11.4396   10.3722 O   0  0  0  0  0  0  0  0  0  0  0  0
   19.5477   12.4371   11.2232 C   0  0  1  0  0  0  0  0  0  0  0  0
   19.8565   13.8702   10.8076 C   0  0  0  0  0  0  0  0  0  0  0  0
   19.9768   14.3024    9.6705 O   0  0  0  0  0  0  0  0  0  0  0  0
   20.0595   14.6941   11.8517 O   0  0  0  0  0  0  0  0  0  0  0  0
   18.0390   12.1967   11.3765 C   0  0  0  0  0  0  0  0  0  0  0  0
   17.3568   12.8827   12.1372 O   0  0  0  0  0  0  0  0  0  0  0  0
   17.5360   11.1439   10.6262 N   0  0  0  0  0  0  0  0  0  0  0  0
   16.3731   10.3990   10.9055 C   0  0  0  0  0  0  0  0  0  0  0  0
   15.7582   10.4723   12.1403 C   0  0  0  0  0  0  0  0  0  0  0  0
   14.8439    9.5014   12.4826 C   0  0  0  0  0  0  0  0  0  0  0  0
   14.1911    9.6599   13.6323 F   0  0  0  0  0  0  0  0  0  0  0  0
   14.5659    8.4203   11.6544 C   0  0  0  0  0  0  0  0  0  0  0  0
   15.0523    8.4352   10.3623 C   0  0  0  0  0  0  0  0  0  0  0  0
   15.8923    9.4715    9.9615 C   0  0  0  0  0  0  0  0  0  0  0  0
   16.3336    9.4518    8.6442 N   0  0  0  0  0  0  0  0  0  0  0  0
  1  2  1  0
  3  2  1  6
  3  4  1  0
  4  5  2  0
  4  6  1  0
  3  7  1  0
  7  8  2  0
  7  9  1  0
  9 10  1  0
 10 11  2  0
 11 12  1  0
 12 13  1  0
 12 14  2  0
 14 15  1  0
 15 16  2  0
 16 17  1  0
 16 10  1  0
M  END
>  <ref_pdb>  (304) 
c0270a

>  <inchikey>  (304) 
KCEABFDGOAFJOU-MRVPVSSYSA-N

>  <original ID>  (304) 
KCEABFDGOAFJOU-MRVPVSSYSA-N

>  <generation_date>  (304) 
None

>  <alias>  (304) 
None

>  <tags>  (304) 
[]

>  <ref_mols>  (304) 
c0692a,c1116a

>  <ref_url>  (304) 
None

>  <submitter_name>  (304) 
None

>  <exports>  (304) 
['/opt/xchem-fragalysis-2/maxwin/CHIKV_HIPPO/hippo_prod/CHIKV_prod11_recipes/Recipe_1GERJCJ_poses.sdf']

>  <original SMILES>  (304) 
CO[C@@H](C(=O)O)C(=O)Nc1cc(F)ccc1N

>  <method>  (304) 
None

>  <submitter_email>  (304) 
None

>  <HIPPO ID>  (304) 
112216

$$$$
NRRXMCJESIFXHJ-QMMMGPOBSA-N
     RDKit          3D

 17 17  0  0  0  0  0  0  0  0999 V2000
   21.6465   11.4364   10.2966 C   0  0  0  0  0  0  0  0  0  0  0  0
   20.2286   11.3588   10.4266 O   0  0  0  0  0  0  0  0  0  0  0  0
   19.6416   12.4985   11.0641 C   0  0  2  0  0  0  0  0  0  0  0  0
   20.2723   12.9231   12.3852 C   0  0  0  0  0  0  0  0  0  0  0  0
   21.2564   12.4186   12.9004 O   0  0  0  0  0  0  0  0  0  0  0  0
   19.7040   13.9859   12.9817 O   0  0  0  0  0  0  0  0  0  0  0  0
   18.1416   12.2241   11.2250 C   0  0  0  0  0  0  0  0  0  0  0  0
   17.3853   13.0023   11.8110 O   0  0  0  0  0  0  0  0  0  0  0  0
   17.7107   11.0660   10.6110 N   0  0  0  0  0  0  0  0  0  0  0  0
   16.5283   10.3514   10.8643 C   0  0  0  0  0  0  0  0  0  0  0  0
   16.1288    9.4389    9.8729 C   0  0  0  0  0  0  0  0  0  0  0  0
   15.1462    8.4881   10.1236 C   0  0  0  0  0  0  0  0  0  0  0  0
   14.5753    8.4329   11.3805 C   0  0  0  0  0  0  0  0  0  0  0  0
   14.8829    9.4245   12.3088 C   0  0  0  0  0  0  0  0  0  0  0  0
   14.1649    9.5005   13.4679 O   0  0  0  0  0  0  0  0  0  0  0  0
   15.8434   10.4060   12.0860 C   0  0  0  0  0  0  0  0  0  0  0  0
   16.2587   11.1906   13.1834 N   0  0  0  0  0  0  0  0  0  0  0  0
  1  2  1  0
  3  2  1  1
  3  4  1  0
  4  5  2  0
  4  6  1  0
  3  7  1  0
  7  8  2  0
  7  9  1  0
  9 10  1  0
 10 11  2  0
 11 12  1  0
 12 13  2  0
 13 14  1  0
 14 15  1  0
 14 16  2  0
 16 17  1  0
 16 10  1  0
M  END
>  <ref_pdb>  (305) 
c0270a

>  <inchikey>  (305) 
NRRXMCJESIFXHJ-QMMMGPOBSA-N

>  <original ID>  (305) 
NRRXMCJESIFXHJ-QMMMGPOBSA-N

>  <generation_date>  (305) 
None

>  <alias>  (305) 
None

>  <tags>  (305) 
[]

>  <ref_mols>  (305) 
c0692a,c1116a

>  <ref_url>  (305) 
None

>  <submitter_name>  (305) 
None

>  <exports>  (305) 
nan

>  <original SMILES>  (305) 
CO[C@H](C(=O)O)C(=O)Nc1cccc(O)c1N

>  <method>  (305) 
None

>  <submitter_email>  (305) 
None

>  <HIPPO ID>  (305) 
112220

$$$$
NRRXMCJESIFXHJ-MRVPVSSYSA-N
     RDKit          3D

 17 17  0  0  0  0  0  0  0  0999 V2000
   21.6921   11.4257   10.5336 C   0  0  0  0  0  0  0  0  0  0  0  0
   20.2792   11.4974   10.3795 O   0  0  0  0  0  0  0  0  0  0  0  0
   19.7028   12.5056   11.2068 C   0  0  1  0  0  0  0  0  0  0  0  0
   20.0238   13.9281   10.7668 C   0  0  0  0  0  0  0  0  0  0  0  0
   19.9745   14.3853    9.6343 O   0  0  0  0  0  0  0  0  0  0  0  0
   20.4579   14.7053   11.7768 O   0  0  0  0  0  0  0  0  0  0  0  0
   18.1925   12.2881   11.2837 C   0  0  0  0  0  0  0  0  0  0  0  0
   17.4550   13.0781   11.8774 O   0  0  0  0  0  0  0  0  0  0  0  0
   17.7587   11.1372   10.6563 N   0  0  0  0  0  0  0  0  0  0  0  0
   16.5706   10.4234   10.8885 C   0  0  0  0  0  0  0  0  0  0  0  0
   16.1861    9.5075    9.8933 C   0  0  0  0  0  0  0  0  0  0  0  0
   15.1972    8.5585   10.1268 C   0  0  0  0  0  0  0  0  0  0  0  0
   14.6024    8.5083   11.3721 C   0  0  0  0  0  0  0  0  0  0  0  0
   14.8952    9.5017   12.3031 C   0  0  0  0  0  0  0  0  0  0  0  0
   14.1561    9.5846   13.4483 O   0  0  0  0  0  0  0  0  0  0  0  0
   15.8651   10.4786   12.0975 C   0  0  0  0  0  0  0  0  0  0  0  0
   16.2668   11.2583   13.2032 N   0  0  0  0  0  0  0  0  0  0  0  0
  1  2  1  0
  3  2  1  6
  3  4  1  0
  4  5  2  0
  4  6  1  0
  3  7  1  0
  7  8  2  0
  7  9  1  0
  9 10  1  0
 10 11  2  0
 11 12  1  0
 12 13  2  0
 13 14  1  0
 14 15  1  0
 14 16  2  0
 16 17  1  0
 16 10  1  0
M  END
>  <ref_pdb>  (306) 
c0270a

>  <inchikey>  (306) 
NRRXMCJESIFXHJ-MRVPVSSYSA-N

>  <original ID>  (306) 
NRRXMCJESIFXHJ-MRVPVSSYSA-N

>  <generation_date>  (306) 
None

>  <alias>  (306) 
None

>  <tags>  (306) 
[]

>  <ref_mols>  (306) 
c0692a,c1116a

>  <ref_url>  (306) 
None

>  <submitter_name>  (306) 
None

>  <exports>  (306) 
nan

>  <original SMILES>  (306) 
CO[C@@H](C(=O)O)C(=O)Nc1cccc(O)c1N

>  <method>  (306) 
None

>  <submitter_email>  (306) 
None

>  <HIPPO ID>  (306) 
112221

$$$$
FRPTUXZKSBAZAK-UHFFFAOYSA-N
     RDKit          3D

 17 17  0  0  0  0  0  0  0  0999 V2000
   14.5302    8.8852   13.9706 C   0  0  0  0  0  0  0  0  0  0  0  0
   15.0148    8.9977   12.5720 C   0  0  0  0  0  0  0  0  0  0  0  0
   14.4657    8.2589   11.5268 C   0  0  0  0  0  0  0  0  0  0  0  0
   14.6366    8.6948   10.2136 C   0  0  0  0  0  0  0  0  0  0  0  0
   13.6927    8.1878    9.1643 C   0  0  0  0  0  0  0  0  0  0  0  0
   15.5443    9.7292    9.9543 C   0  0  0  0  0  0  0  0  0  0  0  0
   15.4639   10.4279    8.7504 N   0  0  0  0  0  0  0  0  0  0  0  0
   16.2931   10.2838   11.0026 C   0  0  0  0  0  0  0  0  0  0  0  0
   17.3800   11.1267   10.7199 N   0  0  0  0  0  0  0  0  0  0  0  0
   17.9124   12.0514   11.5864 C   0  0  0  0  0  0  0  0  0  0  0  0
   17.3426   12.5007   12.5811 O   0  0  0  0  0  0  0  0  0  0  0  0
   19.3053   12.5473   11.2182 C   0  0  0  0  0  0  0  0  0  0  0  0
   20.0913   11.5958   10.5090 O   0  0  0  0  0  0  0  0  0  0  0  0
   21.4906   11.6774   10.8229 C   0  0  0  0  0  0  0  0  0  0  0  0
   22.3318   12.5118    9.8628 C   0  0  0  0  0  0  0  0  0  0  0  0
   21.6788   14.3449    9.6723 Br  0  0  0  0  0  0  0  0  0  0  0  0
   15.9533    9.9807   12.3073 C   0  0  0  0  0  0  0  0  0  0  0  0
  1  2  1  0
  2  3  2  0
  3  4  1  0
  4  5  1  0
  4  6  2  0
  6  7  1  0
  6  8  1  0
  8  9  1  0
  9 10  1  0
 10 11  2  0
 10 12  1  0
 12 13  1  0
 13 14  1  0
 14 15  1  0
 15 16  1  0
  8 17  2  0
 17  2  1  0
M  END
>  <ref_pdb>  (307) 
c0270a

>  <inchikey>  (307) 
FRPTUXZKSBAZAK-UHFFFAOYSA-N

>  <original ID>  (307) 
FRPTUXZKSBAZAK-UHFFFAOYSA-N

>  <generation_date>  (307) 
None

>  <alias>  (307) 
None

>  <tags>  (307) 
[]

>  <ref_mols>  (307) 
c0692a,c1116a

>  <ref_url>  (307) 
None

>  <submitter_name>  (307) 
None

>  <exports>  (307) 
nan

>  <original SMILES>  (307) 
Cc1cc(C)c(N)c(NC(=O)COCCBr)c1

>  <method>  (307) 
None

>  <submitter_email>  (307) 
None

>  <HIPPO ID>  (307) 
112261

$$$$
ZHHDIDFVCDZQMQ-UHFFFAOYSA-N
     RDKit          3D

 17 17  0  0  0  0  0  0  0  0999 V2000
   13.6448    6.9288   11.9115 C   0  0  0  0  0  0  0  0  0  0  0  0
   14.4689    8.1393   11.5980 C   0  0  0  0  0  0  0  0  0  0  0  0
   15.0007    8.2742   10.3296 C   0  0  0  0  0  0  0  0  0  0  0  0
   15.8414    9.3450   10.0268 C   0  0  0  0  0  0  0  0  0  0  0  0
   16.4399    9.3459    8.7905 N   0  0  0  0  0  0  0  0  0  0  0  0
   16.2261   10.2543   11.0210 C   0  0  0  0  0  0  0  0  0  0  0  0
   17.3299   11.0987   10.7826 N   0  0  0  0  0  0  0  0  0  0  0  0
   17.7187   12.1568   11.5702 C   0  0  0  0  0  0  0  0  0  0  0  0
   17.0115   12.7118   12.4103 O   0  0  0  0  0  0  0  0  0  0  0  0
   19.1433   12.6502   11.3454 C   0  0  0  0  0  0  0  0  0  0  0  0
   19.9735   11.7712   10.6059 O   0  0  0  0  0  0  0  0  0  0  0  0
   21.3272   11.8500   11.0771 C   0  0  0  0  0  0  0  0  0  0  0  0
   22.2853   11.3800   10.0128 C   0  0  0  0  0  0  0  0  0  0  0  0
   22.9465   12.8805    8.9700 Br  0  0  0  0  0  0  0  0  0  0  0  0
   15.5922   10.2084   12.2454 C   0  0  0  0  0  0  0  0  0  0  0  0
   14.7339    9.1595   12.5159 C   0  0  0  0  0  0  0  0  0  0  0  0
   14.1148    9.2034   13.6942 F   0  0  0  0  0  0  0  0  0  0  0  0
  1  2  1  0
  2  3  2  0
  3  4  1  0
  4  5  1  0
  4  6  2  0
  6  7  1  0
  7  8  1  0
  8  9  2  0
  8 10  1  0
 10 11  1  0
 11 12  1  0
 12 13  1  0
 13 14  1  0
  6 15  1  0
 15 16  2  0
 16 17  1  0
 16  2  1  0
M  END
>  <ref_pdb>  (308) 
c0270a

>  <inchikey>  (308) 
ZHHDIDFVCDZQMQ-UHFFFAOYSA-N

>  <original ID>  (308) 
ZHHDIDFVCDZQMQ-UHFFFAOYSA-N

>  <generation_date>  (308) 
None

>  <alias>  (308) 
None

>  <tags>  (308) 
[]

>  <ref_mols>  (308) 
c0692a,c1116a

>  <ref_url>  (308) 
None

>  <submitter_name>  (308) 
None

>  <exports>  (308) 
nan

>  <original SMILES>  (308) 
Cc1cc(N)c(NC(=O)COCCBr)cc1F

>  <method>  (308) 
None

>  <submitter_email>  (308) 
None

>  <HIPPO ID>  (308) 
112270

$$$$
YMBZGAAHSLMAFC-UHFFFAOYSA-N
     RDKit          3D

 17 17  0  0  0  0  0  0  0  0999 V2000
   16.0459   10.9159   13.2088 N   0  0  0  0  0  0  0  0  0  0  0  0
   15.6682   10.1462   12.0818 C   0  0  0  0  0  0  0  0  0  0  0  0
   14.7792    9.0989   12.3074 C   0  0  0  0  0  0  0  0  0  0  0  0
   14.1684    9.0875   13.4946 F   0  0  0  0  0  0  0  0  0  0  0  0
   14.4394    8.1508   11.3465 C   0  0  0  0  0  0  0  0  0  0  0  0
   14.9397    8.2969   10.0717 C   0  0  0  0  0  0  0  0  0  0  0  0
   15.8788    9.2908    9.8359 C   0  0  0  0  0  0  0  0  0  0  0  0
   16.4004    9.3571    8.6099 F   0  0  0  0  0  0  0  0  0  0  0  0
   16.3067   10.1791   10.8391 C   0  0  0  0  0  0  0  0  0  0  0  0
   17.4453   10.9656   10.5745 N   0  0  0  0  0  0  0  0  0  0  0  0
   17.8350   12.0986   11.2452 C   0  0  0  0  0  0  0  0  0  0  0  0
   17.0847   12.8320   11.8938 O   0  0  0  0  0  0  0  0  0  0  0  0
   19.3118   12.4334   11.1425 C   0  0  0  0  0  0  0  0  0  0  0  0
   20.0658   11.4944   10.4023 O   0  0  0  0  0  0  0  0  0  0  0  0
   21.4626   11.4820   10.7301 C   0  0  0  0  0  0  0  0  0  0  0  0
   22.1811   12.8093   10.5168 C   0  0  0  0  0  0  0  0  0  0  0  0
   22.1175   13.9162   12.1340 Br  0  0  0  0  0  0  0  0  0  0  0  0
  1  2  1  0
  2  3  2  0
  3  4  1  0
  3  5  1  0
  5  6  2  0
  6  7  1  0
  7  8  1  0
  7  9  2  0
  9 10  1  0
 10 11  1  0
 11 12  2  0
 11 13  1  0
 13 14  1  0
 14 15  1  0
 15 16  1  0
 16 17  1  0
  9  2  1  0
M  END
>  <ref_pdb>  (309) 
c0270a

>  <inchikey>  (309) 
YMBZGAAHSLMAFC-UHFFFAOYSA-N

>  <original ID>  (309) 
YMBZGAAHSLMAFC-UHFFFAOYSA-N

>  <generation_date>  (309) 
None

>  <alias>  (309) 
None

>  <tags>  (309) 
[]

>  <ref_mols>  (309) 
c0692a,c1116a

>  <ref_url>  (309) 
None

>  <submitter_name>  (309) 
None

>  <exports>  (309) 
nan

>  <original SMILES>  (309) 
Nc1c(F)ccc(F)c1NC(=O)COCCBr

>  <method>  (309) 
None

>  <submitter_email>  (309) 
None

>  <HIPPO ID>  (309) 
112293

$$$$
XZZVKXLNVWBMPC-UHFFFAOYSA-N
     RDKit          3D

 17 17  0  0  0  0  0  0  0  0999 V2000
   14.2710    9.0737   14.0036 C   0  0  0  0  0  0  0  0  0  0  0  0
   14.7842    9.0491   12.6070 C   0  0  0  0  0  0  0  0  0  0  0  0
   15.6394   10.1043   12.2865 C   0  0  0  0  0  0  0  0  0  0  0  0
   16.2053   10.1963   11.0283 C   0  0  0  0  0  0  0  0  0  0  0  0
   17.2842   11.0609   10.7747 N   0  0  0  0  0  0  0  0  0  0  0  0
   17.6487   12.1248   11.5635 C   0  0  0  0  0  0  0  0  0  0  0  0
   16.9266   12.6805   12.3904 O   0  0  0  0  0  0  0  0  0  0  0  0
   19.0560   12.6405   11.3398 C   0  0  0  0  0  0  0  0  0  0  0  0
   19.9575   11.7071   10.7643 O   0  0  0  0  0  0  0  0  0  0  0  0
   21.2724   12.2675   10.8350 C   0  0  0  0  0  0  0  0  0  0  0  0
   22.3182   11.3021   10.3402 C   0  0  0  0  0  0  0  0  0  0  0  0
   23.8930   12.1047   10.4859 Cl  0  0  0  0  0  0  0  0  0  0  0  0
   15.7881    9.3152   10.0305 C   0  0  0  0  0  0  0  0  0  0  0  0
   16.3558    9.3330    8.7768 N   0  0  0  0  0  0  0  0  0  0  0  0
   14.9504    8.2488   10.3458 C   0  0  0  0  0  0  0  0  0  0  0  0
   14.4821    8.0858   11.6366 C   0  0  0  0  0  0  0  0  0  0  0  0
   13.5003    6.6940   11.9257 Cl  0  0  0  0  0  0  0  0  0  0  0  0
  1  2  1  0
  2  3  2  0
  3  4  1  0
  4  5  1  0
  5  6  1  0
  6  7  2  0
  6  8  1  0
  8  9  1  0
  9 10  1  0
 10 11  1  0
 11 12  1  0
  4 13  2  0
 13 14  1  0
 13 15  1  0
 15 16  2  0
 16 17  1  0
 16  2  1  0
M  END
>  <ref_pdb>  (310) 
c0270a

>  <inchikey>  (310) 
XZZVKXLNVWBMPC-UHFFFAOYSA-N

>  <original ID>  (310) 
XZZVKXLNVWBMPC-UHFFFAOYSA-N

>  <generation_date>  (310) 
None

>  <alias>  (310) 
None

>  <tags>  (310) 
[]

>  <ref_mols>  (310) 
c0692a,c1116a

>  <ref_url>  (310) 
None

>  <submitter_name>  (310) 
None

>  <exports>  (310) 
nan

>  <original SMILES>  (310) 
Cc1cc(NC(=O)COCCCl)c(N)cc1Cl

>  <method>  (310) 
None

>  <submitter_email>  (310) 
None

>  <HIPPO ID>  (310) 
112444

$$$$
NMRQDVCXNDUCEQ-UHFFFAOYSA-N
     RDKit          3D

 17 17  0  0  0  0  0  0  0  0999 V2000
   13.4773    9.3569    9.1771 C   0  0  0  0  0  0  0  0  0  0  0  0
   14.5526   10.0131    9.9994 C   0  0  0  0  0  0  0  0  0  0  0  0
   15.8196    9.5109    9.7818 C   0  0  0  0  0  0  0  0  0  0  0  0
   16.8843   10.1694   10.3578 C   0  0  0  0  0  0  0  0  0  0  0  0
   18.1772    9.9967    9.9058 N   0  0  0  0  0  0  0  0  0  0  0  0
   16.7157   11.0846   11.3847 C   0  0  0  0  0  0  0  0  0  0  0  0
   17.8787   11.7119   11.8097 N   0  0  0  0  0  0  0  0  0  0  0  0
   17.9937   13.0394   12.1249 C   0  0  0  0  0  0  0  0  0  0  0  0
   17.0718   13.7966   12.3997 O   0  0  0  0  0  0  0  0  0  0  0  0
   19.4391   13.5164   12.0363 C   0  0  0  0  0  0  0  0  0  0  0  0
   20.2514   12.4611   11.5450 O   0  0  0  0  0  0  0  0  0  0  0  0
   21.5278   12.9088   11.0806 C   0  0  0  0  0  0  0  0  0  0  0  0
   22.3695   11.6946   10.7484 C   0  0  0  0  0  0  0  0  0  0  0  0
   21.3686   10.6134    9.8115 Cl  0  0  0  0  0  0  0  0  0  0  0  0
   15.4754   11.4732   11.7567 C   0  0  0  0  0  0  0  0  0  0  0  0
   14.4438   11.0754   10.9317 C   0  0  0  0  0  0  0  0  0  0  0  0
   13.2446   12.2870   10.9507 Cl  0  0  0  0  0  0  0  0  0  0  0  0
  1  2  1  0
  2  3  2  0
  3  4  1  0
  4  5  1  0
  4  6  2  0
  6  7  1  0
  7  8  1  0
  8  9  2  0
  8 10  1  0
 10 11  1  0
 11 12  1  0
 12 13  1  0
 13 14  1  0
  6 15  1  0
 15 16  2  0
 16 17  1  0
 16  2  1  0
M  END
>  <ref_pdb>  (311) 
c0270a

>  <inchikey>  (311) 
NMRQDVCXNDUCEQ-UHFFFAOYSA-N

>  <original ID>  (311) 
NMRQDVCXNDUCEQ-UHFFFAOYSA-N

>  <generation_date>  (311) 
None

>  <alias>  (311) 
None

>  <tags>  (311) 
[]

>  <ref_mols>  (311) 
c0692a,c1116a

>  <ref_url>  (311) 
None

>  <submitter_name>  (311) 
None

>  <exports>  (311) 
nan

>  <original SMILES>  (311) 
Cc1cc(N)c(NC(=O)COCCCl)cc1Cl

>  <method>  (311) 
None

>  <submitter_email>  (311) 
None

>  <HIPPO ID>  (311) 
112451

$$$$
PUMLKNXHOPTBRV-UHFFFAOYSA-N
     RDKit          3D

 17 17  0  0  0  0  0  0  0  0999 V2000
   14.3002    9.1885   14.0076 C   0  0  0  0  0  0  0  0  0  0  0  0
   14.8119    9.1215   12.6114 C   0  0  0  0  0  0  0  0  0  0  0  0
   15.6740   10.1674   12.2645 C   0  0  0  0  0  0  0  0  0  0  0  0
   16.2391   10.2256   11.0046 C   0  0  0  0  0  0  0  0  0  0  0  0
   17.3458   11.0486   10.7260 N   0  0  0  0  0  0  0  0  0  0  0  0
   17.7880   12.0937   11.5024 C   0  0  0  0  0  0  0  0  0  0  0  0
   17.1085   12.6986   12.3310 O   0  0  0  0  0  0  0  0  0  0  0  0
   19.2289   12.5185   11.2470 C   0  0  0  0  0  0  0  0  0  0  0  0
   20.0489   11.4683   10.7541 O   0  0  0  0  0  0  0  0  0  0  0  0
   21.3889   11.9086   10.4903 C   0  0  0  0  0  0  0  0  0  0  0  0
   22.2152   12.1234   11.7474 C   0  0  0  0  0  0  0  0  0  0  0  0
   23.6743   13.0600   11.3639 Cl  0  0  0  0  0  0  0  0  0  0  0  0
   15.7936    9.3393   10.0243 C   0  0  0  0  0  0  0  0  0  0  0  0
   16.3293    9.3438    8.7560 N   0  0  0  0  0  0  0  0  0  0  0  0
   14.9623    8.2765   10.3667 C   0  0  0  0  0  0  0  0  0  0  0  0
   14.5128    8.1309   11.6667 C   0  0  0  0  0  0  0  0  0  0  0  0
   13.4811    6.5707   12.0093 Br  0  0  0  0  0  0  0  0  0  0  0  0
  1  2  1  0
  2  3  2  0
  3  4  1  0
  4  5  1  0
  5  6  1  0
  6  7  2  0
  6  8  1  0
  8  9  1  0
  9 10  1  0
 10 11  1  0
 11 12  1  0
  4 13  2  0
 13 14  1  0
 13 15  1  0
 15 16  2  0
 16 17  1  0
 16  2  1  0
M  END
>  <ref_pdb>  (312) 
c0270a

>  <inchikey>  (312) 
PUMLKNXHOPTBRV-UHFFFAOYSA-N

>  <original ID>  (312) 
PUMLKNXHOPTBRV-UHFFFAOYSA-N

>  <generation_date>  (312) 
None

>  <alias>  (312) 
None

>  <tags>  (312) 
[]

>  <ref_mols>  (312) 
c0692a,c1116a

>  <ref_url>  (312) 
None

>  <submitter_name>  (312) 
None

>  <exports>  (312) 
nan

>  <original SMILES>  (312) 
Cc1cc(NC(=O)COCCCl)c(N)cc1Br

>  <method>  (312) 
None

>  <submitter_email>  (312) 
None

>  <HIPPO ID>  (312) 
112454

$$$$
RZBDCKCLJLDBRI-UHFFFAOYSA-N
     RDKit          3D

 17 17  0  0  0  0  0  0  0  0999 V2000
   18.5587   10.5894   10.3860 C   0  0  0  0  0  0  0  0  0  0  0  0
   17.4467   11.3848   10.8354 N   0  0  0  0  0  0  0  0  0  0  0  0
   17.6976   12.5771   11.5052 C   0  0  0  0  0  0  0  0  0  0  0  0
   16.8035   13.2425   12.0446 O   0  0  0  0  0  0  0  0  0  0  0  0
   19.1576   13.0896   11.6093 C   0  0  0  0  0  0  0  0  0  0  0  0
   20.0091   12.8545   10.5081 O   0  0  0  0  0  0  0  0  0  0  0  0
   21.3864   13.1671   10.7348 C   0  0  0  0  0  0  0  0  0  0  0  0
   22.1222   12.1569   11.6033 C   0  0  0  0  0  0  0  0  0  0  0  0
   21.9533   10.5501   10.9199 Cl  0  0  0  0  0  0  0  0  0  0  0  0
   16.2512   10.6080   11.0008 C   0  0  0  0  0  0  0  0  0  0  0  0
   15.8150    9.8108    9.9157 C   0  0  0  0  0  0  0  0  0  0  0  0
   14.9741    8.7195   10.0993 C   0  0  0  0  0  0  0  0  0  0  0  0
   14.5840    8.3953   11.3857 C   0  0  0  0  0  0  0  0  0  0  0  0
   14.9242    9.2468   12.4430 C   0  0  0  0  0  0  0  0  0  0  0  0
   14.3092    8.8664   14.1843 Br  0  0  0  0  0  0  0  0  0  0  0  0
   15.7002   10.3990   12.2711 C   0  0  0  0  0  0  0  0  0  0  0  0
   16.1389   11.1199   13.4167 N   0  0  0  0  0  0  0  0  0  0  0  0
  1  2  1  0
  2  3  1  0
  3  4  2  0
  3  5  1  0
  5  6  1  0
  6  7  1  0
  7  8  1  0
  8  9  1  0
  2 10  1  0
 10 11  2  0
 11 12  1  0
 12 13  2  0
 13 14  1  0
 14 15  1  0
 14 16  2  0
 16 17  1  0
 16 10  1  0
M  END
>  <ref_pdb>  (313) 
c0270a

>  <inchikey>  (313) 
RZBDCKCLJLDBRI-UHFFFAOYSA-N

>  <original ID>  (313) 
RZBDCKCLJLDBRI-UHFFFAOYSA-N

>  <generation_date>  (313) 
None

>  <alias>  (313) 
None

>  <tags>  (313) 
[]

>  <ref_mols>  (313) 
c0692a,c1116a

>  <ref_url>  (313) 
None

>  <submitter_name>  (313) 
None

>  <exports>  (313) 
nan

>  <original SMILES>  (313) 
CN(C(=O)COCCCl)c1cccc(Br)c1N

>  <method>  (313) 
None

>  <submitter_email>  (313) 
None

>  <HIPPO ID>  (313) 
112455

$$$$
WOLALUBCYSBPOY-UHFFFAOYSA-N
     RDKit          3D

 17 17  0  0  0  0  0  0  0  0999 V2000
   16.2640    9.4603    8.5618 N   0  0  0  0  0  0  0  0  0  0  0  0
   15.7930    9.3763    9.8637 C   0  0  0  0  0  0  0  0  0  0  0  0
   14.9659    8.2960   10.1626 C   0  0  0  0  0  0  0  0  0  0  0  0
   14.5426    8.0750   11.4630 C   0  0  0  0  0  0  0  0  0  0  0  0
   13.4368    6.3150   11.7750 I   0  0  0  0  0  0  0  0  0  0  0  0
   14.8793    9.0144   12.4421 C   0  0  0  0  0  0  0  0  0  0  0  0
   14.3121    9.0067   14.0557 Cl  0  0  0  0  0  0  0  0  0  0  0  0
   15.7331   10.0741   12.1521 C   0  0  0  0  0  0  0  0  0  0  0  0
   16.2741   10.2029   10.8863 C   0  0  0  0  0  0  0  0  0  0  0  0
   17.3763   11.0468   10.6417 N   0  0  0  0  0  0  0  0  0  0  0  0
   17.8454   12.0386   11.4781 C   0  0  0  0  0  0  0  0  0  0  0  0
   17.1989   12.5660   12.3821 O   0  0  0  0  0  0  0  0  0  0  0  0
   19.2901   12.4733   11.2226 C   0  0  0  0  0  0  0  0  0  0  0  0
   19.9878   11.6074   10.3479 O   0  0  0  0  0  0  0  0  0  0  0  0
   21.3846   11.4426   10.6272 C   0  0  0  0  0  0  0  0  0  0  0  0
   22.2033   12.6989   10.9343 C   0  0  0  0  0  0  0  0  0  0  0  0
   22.2184   13.8764    9.6137 Cl  0  0  0  0  0  0  0  0  0  0  0  0
  1  2  1  0
  2  3  2  0
  3  4  1  0
  4  5  1  0
  4  6  2  0
  6  7  1  0
  6  8  1  0
  8  9  2  0
  9 10  1  0
 10 11  1  0
 11 12  2  0
 11 13  1  0
 13 14  1  0
 14 15  1  0
 15 16  1  0
 16 17  1  0
  9  2  1  0
M  END
>  <ref_pdb>  (314) 
c0270a

>  <inchikey>  (314) 
WOLALUBCYSBPOY-UHFFFAOYSA-N

>  <original ID>  (314) 
WOLALUBCYSBPOY-UHFFFAOYSA-N

>  <generation_date>  (314) 
None

>  <alias>  (314) 
None

>  <tags>  (314) 
[]

>  <ref_mols>  (314) 
c0692a,c1116a

>  <ref_url>  (314) 
None

>  <submitter_name>  (314) 
None

>  <exports>  (314) 
nan

>  <original SMILES>  (314) 
Nc1cc(I)c(Cl)cc1NC(=O)COCCCl

>  <method>  (314) 
None

>  <submitter_email>  (314) 
None

>  <HIPPO ID>  (314) 
112459

$$$$
AXXFPZQEQDQFFS-UHFFFAOYSA-N
     RDKit          3D

 17 17  0  0  0  0  0  0  0  0999 V2000
   14.4224    9.7701   14.0373 C   0  0  0  0  0  0  0  0  0  0  0  0
   14.9826    9.5520   12.6791 C   0  0  0  0  0  0  0  0  0  0  0  0
   14.5608    8.5333   11.8324 C   0  0  0  0  0  0  0  0  0  0  0  0
   14.8581    8.5915   10.4722 C   0  0  0  0  0  0  0  0  0  0  0  0
   14.1033    7.6903    9.5426 C   0  0  0  0  0  0  0  0  0  0  0  0
   15.8015    9.5215   10.0202 C   0  0  0  0  0  0  0  0  0  0  0  0
   16.2117    9.4736    8.6852 N   0  0  0  0  0  0  0  0  0  0  0  0
   16.4156   10.3863   10.9418 C   0  0  0  0  0  0  0  0  0  0  0  0
   17.5807   11.0967   10.5985 N   0  0  0  0  0  0  0  0  0  0  0  0
   18.0728   12.1842   11.2922 C   0  0  0  0  0  0  0  0  0  0  0  0
   17.4013   12.9077   12.0295 O   0  0  0  0  0  0  0  0  0  0  0  0
   19.5551   12.4829   11.0811 C   0  0  0  0  0  0  0  0  0  0  0  0
   20.2844   11.3705   10.5838 O   0  0  0  0  0  0  0  0  0  0  0  0
   21.6634   11.4026   10.9810 C   0  0  0  0  0  0  0  0  0  0  0  0
   22.6208   11.6844    9.8336 C   0  0  0  0  0  0  0  0  0  0  0  0
   22.5988   13.3768    9.3173 Cl  0  0  0  0  0  0  0  0  0  0  0  0
   15.9201   10.4652   12.2326 C   0  0  0  0  0  0  0  0  0  0  0  0
  1  2  1  0
  2  3  2  0
  3  4  1  0
  4  5  1  0
  4  6  2  0
  6  7  1  0
  6  8  1  0
  8  9  1  0
  9 10  1  0
 10 11  2  0
 10 12  1  0
 12 13  1  0
 13 14  1  0
 14 15  1  0
 15 16  1  0
  8 17  2  0
 17  2  1  0
M  END
>  <ref_pdb>  (315) 
c0270a

>  <inchikey>  (315) 
AXXFPZQEQDQFFS-UHFFFAOYSA-N

>  <original ID>  (315) 
AXXFPZQEQDQFFS-UHFFFAOYSA-N

>  <generation_date>  (315) 
None

>  <alias>  (315) 
None

>  <tags>  (315) 
[]

>  <ref_mols>  (315) 
c0692a,c1116a

>  <ref_url>  (315) 
None

>  <submitter_name>  (315) 
None

>  <exports>  (315) 
nan

>  <original SMILES>  (315) 
Cc1cc(C)c(N)c(NC(=O)COCCCl)c1

>  <method>  (315) 
None

>  <submitter_email>  (315) 
None

>  <HIPPO ID>  (315) 
112467

$$$$
MVYJGPSIQNUZKE-UHFFFAOYSA-N
     RDKit          3D

 17 17  0  0  0  0  0  0  0  0999 V2000
   16.3704   10.9281   13.4026 N   0  0  0  0  0  0  0  0  0  0  0  0
   15.8925   10.2747   12.2416 C   0  0  0  0  0  0  0  0  0  0  0  0
   14.9675    9.2514   12.4276 C   0  0  0  0  0  0  0  0  0  0  0  0
   14.4240    9.1491   13.6745 O   0  0  0  0  0  0  0  0  0  0  0  0
   14.5150    8.4627   11.3883 C   0  0  0  0  0  0  0  0  0  0  0  0
   14.8674    8.8442   10.1116 C   0  0  0  0  0  0  0  0  0  0  0  0
   13.6871    8.4546    8.7218 Br  0  0  0  0  0  0  0  0  0  0  0  0
   15.9144    9.7178    9.8916 C   0  0  0  0  0  0  0  0  0  0  0  0
   16.4612   10.4106   10.9692 C   0  0  0  0  0  0  0  0  0  0  0  0
   17.6070   11.1697   10.7160 N   0  0  0  0  0  0  0  0  0  0  0  0
   18.0199   12.2794   11.4128 C   0  0  0  0  0  0  0  0  0  0  0  0
   17.2951   12.9857   12.1137 O   0  0  0  0  0  0  0  0  0  0  0  0
   19.5011   12.5803   11.2572 C   0  0  0  0  0  0  0  0  0  0  0  0
   20.1086   11.7013   10.3258 O   0  0  0  0  0  0  0  0  0  0  0  0
   21.4403   11.2866   10.6370 C   0  0  0  0  0  0  0  0  0  0  0  0
   22.4280   12.4024   10.9550 C   0  0  0  0  0  0  0  0  0  0  0  0
   22.5615   12.6401   12.7197 Cl  0  0  0  0  0  0  0  0  0  0  0  0
  1  2  1  0
  2  3  2  0
  3  4  1  0
  3  5  1  0
  5  6  2  0
  6  7  1  0
  6  8  1  0
  8  9  2  0
  9 10  1  0
 10 11  1  0
 11 12  2  0
 11 13  1  0
 13 14  1  0
 14 15  1  0
 15 16  1  0
 16 17  1  0
  9  2  1  0
M  END
>  <ref_pdb>  (316) 
c0270a

>  <inchikey>  (316) 
MVYJGPSIQNUZKE-UHFFFAOYSA-N

>  <original ID>  (316) 
MVYJGPSIQNUZKE-UHFFFAOYSA-N

>  <generation_date>  (316) 
None

>  <alias>  (316) 
None

>  <tags>  (316) 
[]

>  <ref_mols>  (316) 
c0692a,c1116a

>  <ref_url>  (316) 
None

>  <submitter_name>  (316) 
None

>  <exports>  (316) 
nan

>  <original SMILES>  (316) 
Nc1c(O)cc(Br)cc1NC(=O)COCCCl

>  <method>  (316) 
None

>  <submitter_email>  (316) 
None

>  <HIPPO ID>  (316) 
112469

$$$$
HUTVRTGEABYIGN-UHFFFAOYSA-N
     RDKit          3D

 17 17  0  0  0  0  0  0  0  0999 V2000
   14.8045    9.8791    8.5782 C   0  0  0  0  0  0  0  0  0  0  0  0
   16.0550    9.2546    8.9685 N   0  0  0  0  0  0  0  0  0  0  0  0
   15.9580    9.0884   10.3657 C   0  0  0  0  0  0  0  0  0  0  0  0
   15.1201    8.0569   10.8197 C   0  0  0  0  0  0  0  0  0  0  0  0
   14.6454    8.0770   12.1174 C   0  0  0  0  0  0  0  0  0  0  0  0
   14.9616    9.1663   12.9185 C   0  0  0  0  0  0  0  0  0  0  0  0
   14.2020    9.4033   14.6036 Br  0  0  0  0  0  0  0  0  0  0  0  0
   15.8229   10.1642   12.5007 C   0  0  0  0  0  0  0  0  0  0  0  0
   16.3650   10.1157   11.2317 C   0  0  0  0  0  0  0  0  0  0  0  0
   17.3539   11.0325   10.8335 N   0  0  0  0  0  0  0  0  0  0  0  0
   17.6608   12.1886   11.5164 C   0  0  0  0  0  0  0  0  0  0  0  0
   16.8810   12.8233   12.2249 O   0  0  0  0  0  0  0  0  0  0  0  0
   19.0839   12.6750   11.3429 C   0  0  0  0  0  0  0  0  0  0  0  0
   19.9450   11.7036   10.7738 O   0  0  0  0  0  0  0  0  0  0  0  0
   21.2774   12.2231   10.7729 C   0  0  0  0  0  0  0  0  0  0  0  0
   22.2099   11.2235   10.1429 C   0  0  0  0  0  0  0  0  0  0  0  0
   23.7193   12.0393    9.7311 Cl  0  0  0  0  0  0  0  0  0  0  0  0
  1  2  1  0
  2  3  1  0
  3  4  2  0
  4  5  1  0
  5  6  2  0
  6  7  1  0
  6  8  1  0
  8  9  2  0
  9 10  1  0
 10 11  1  0
 11 12  2  0
 11 13  1  0
 13 14  1  0
 14 15  1  0
 15 16  1  0
 16 17  1  0
  9  3  1  0
M  END
>  <ref_pdb>  (317) 
c0270a

>  <inchikey>  (317) 
HUTVRTGEABYIGN-UHFFFAOYSA-N

>  <original ID>  (317) 
HUTVRTGEABYIGN-UHFFFAOYSA-N

>  <generation_date>  (317) 
None

>  <alias>  (317) 
None

>  <tags>  (317) 
[]

>  <ref_mols>  (317) 
c0692a,c1116a

>  <ref_url>  (317) 
None

>  <submitter_name>  (317) 
None

>  <exports>  (317) 
nan

>  <original SMILES>  (317) 
CNc1ccc(Br)cc1NC(=O)COCCCl

>  <method>  (317) 
None

>  <submitter_email>  (317) 
None

>  <HIPPO ID>  (317) 
112484

$$$$
WUHAKEIDLGOOPO-UHFFFAOYSA-N
     RDKit          3D

 17 17  0  0  0  0  0  0  0  0999 V2000
   16.0675   10.9851   13.1953 N   0  0  0  0  0  0  0  0  0  0  0  0
   15.6950   10.2055   12.0749 C   0  0  0  0  0  0  0  0  0  0  0  0
   14.7904    9.1719   12.3063 C   0  0  0  0  0  0  0  0  0  0  0  0
   14.1651    9.1861   13.4865 F   0  0  0  0  0  0  0  0  0  0  0  0
   14.4560    8.2077   11.3590 C   0  0  0  0  0  0  0  0  0  0  0  0
   14.9672    8.3301   10.0868 C   0  0  0  0  0  0  0  0  0  0  0  0
   15.9158    9.3132    9.8456 C   0  0  0  0  0  0  0  0  0  0  0  0
   16.4400    9.3603    8.6201 F   0  0  0  0  0  0  0  0  0  0  0  0
   16.3502   10.2089   10.8411 C   0  0  0  0  0  0  0  0  0  0  0  0
   17.5063   10.9693   10.5723 N   0  0  0  0  0  0  0  0  0  0  0  0
   17.9425   12.0939   11.2335 C   0  0  0  0  0  0  0  0  0  0  0  0
   17.2242   12.8414   11.9021 O   0  0  0  0  0  0  0  0  0  0  0  0
   19.4215   12.4088   11.0558 C   0  0  0  0  0  0  0  0  0  0  0  0
   20.1271   11.3726   10.3870 O   0  0  0  0  0  0  0  0  0  0  0  0
   21.5241   11.6747   10.2621 C   0  0  0  0  0  0  0  0  0  0  0  0
   22.3259   11.1395   11.4281 C   0  0  0  0  0  0  0  0  0  0  0  0
   21.9401   11.7707   12.6334 O   0  0  0  0  0  0  0  0  0  0  0  0
  1  2  1  0
  2  3  2  0
  3  4  1  0
  3  5  1  0
  5  6  2  0
  6  7  1  0
  7  8  1  0
  7  9  2  0
  9 10  1  0
 10 11  1  0
 11 12  2  0
 11 13  1  0
 13 14  1  0
 14 15  1  0
 15 16  1  0
 16 17  1  0
  9  2  1  0
M  END
>  <ref_pdb>  (318) 
c0270a

>  <inchikey>  (318) 
WUHAKEIDLGOOPO-UHFFFAOYSA-N

>  <original ID>  (318) 
WUHAKEIDLGOOPO-UHFFFAOYSA-N

>  <generation_date>  (318) 
None

>  <alias>  (318) 
None

>  <tags>  (318) 
[]

>  <ref_mols>  (318) 
c0692a,c1116a

>  <ref_url>  (318) 
None

>  <submitter_name>  (318) 
None

>  <exports>  (318) 
nan

>  <original SMILES>  (318) 
Nc1c(F)ccc(F)c1NC(=O)COCCO

>  <method>  (318) 
None

>  <submitter_email>  (318) 
None

>  <HIPPO ID>  (318) 
112529

$$$$
GWHHTDHEDFXPRA-UHFFFAOYSA-N
     RDKit          3D

 17 17  0  0  0  0  0  0  0  0999 V2000
   14.4104    9.6151   14.0679 C   0  0  0  0  0  0  0  0  0  0  0  0
   14.9631    9.4465   12.7003 C   0  0  0  0  0  0  0  0  0  0  0  0
   14.5411    8.4590   11.8200 C   0  0  0  0  0  0  0  0  0  0  0  0
   14.8435    8.5620   10.4629 C   0  0  0  0  0  0  0  0  0  0  0  0
   14.0874    7.6876    9.5099 C   0  0  0  0  0  0  0  0  0  0  0  0
   15.7833    9.5099   10.0365 C   0  0  0  0  0  0  0  0  0  0  0  0
   16.2033    9.4910    8.7041 N   0  0  0  0  0  0  0  0  0  0  0  0
   16.3805   10.3586   10.9825 C   0  0  0  0  0  0  0  0  0  0  0  0
   17.5176   11.1257   10.6655 N   0  0  0  0  0  0  0  0  0  0  0  0
   17.9225   12.2330   11.3824 C   0  0  0  0  0  0  0  0  0  0  0  0
   17.1924   12.9000   12.1180 O   0  0  0  0  0  0  0  0  0  0  0  0
   19.3778   12.6402   11.2212 C   0  0  0  0  0  0  0  0  0  0  0  0
   20.2139   11.6980   10.5772 O   0  0  0  0  0  0  0  0  0  0  0  0
   21.5900   11.9698   10.9122 C   0  0  0  0  0  0  0  0  0  0  0  0
   22.4968   11.6348    9.7446 C   0  0  0  0  0  0  0  0  0  0  0  0
   22.4621   12.6703    8.7663 O   0  0  0  0  0  0  0  0  0  0  0  0
   15.8916   10.3798   12.2801 C   0  0  0  0  0  0  0  0  0  0  0  0
  1  2  1  0
  2  3  2  0
  3  4  1  0
  4  5  1  0
  4  6  2  0
  6  7  1  0
  6  8  1  0
  8  9  1  0
  9 10  1  0
 10 11  2  0
 10 12  1  0
 12 13  1  0
 13 14  1  0
 14 15  1  0
 15 16  1  0
  8 17  2  0
 17  2  1  0
M  END
>  <ref_pdb>  (319) 
c0270a

>  <inchikey>  (319) 
GWHHTDHEDFXPRA-UHFFFAOYSA-N

>  <original ID>  (319) 
GWHHTDHEDFXPRA-UHFFFAOYSA-N

>  <generation_date>  (319) 
None

>  <alias>  (319) 
None

>  <tags>  (319) 
[]

>  <ref_mols>  (319) 
c0692a,c1116a

>  <ref_url>  (319) 
None

>  <submitter_name>  (319) 
None

>  <exports>  (319) 
nan

>  <original SMILES>  (319) 
Cc1cc(C)c(N)c(NC(=O)COCCO)c1

>  <method>  (319) 
None

>  <submitter_email>  (319) 
None

>  <HIPPO ID>  (319) 
112532

$$$$
SZFDWJXYUFXAMZ-UHFFFAOYSA-N
     RDKit          3D

 17 17  0  0  0  0  0  0  0  0999 V2000
   14.3759    8.8845   13.6076 C   0  0  0  0  0  0  0  0  0  0  0  0
   14.8902    9.1493   12.2341 C   0  0  0  0  0  0  0  0  0  0  0  0
   14.5075    8.3449   11.1512 C   0  0  0  0  0  0  0  0  0  0  0  0
   13.5906    7.3775   11.3080 F   0  0  0  0  0  0  0  0  0  0  0  0
   15.0205    8.5517    9.8908 C   0  0  0  0  0  0  0  0  0  0  0  0
   16.0294    9.4874    9.7332 C   0  0  0  0  0  0  0  0  0  0  0  0
   16.4392   10.2969   10.8043 C   0  0  0  0  0  0  0  0  0  0  0  0
   17.6095   11.0490   10.6002 N   0  0  0  0  0  0  0  0  0  0  0  0
   18.0306   12.1655   11.2833 C   0  0  0  0  0  0  0  0  0  0  0  0
   17.3044   12.9060   11.9490 O   0  0  0  0  0  0  0  0  0  0  0  0
   19.5137   12.4744   11.1275 C   0  0  0  0  0  0  0  0  0  0  0  0
   20.2137   11.3964   10.5210 O   0  0  0  0  0  0  0  0  0  0  0  0
   21.6068   11.6714   10.3784 C   0  0  0  0  0  0  0  0  0  0  0  0
   22.3924   11.4447   11.6628 C   0  0  0  0  0  0  0  0  0  0  0  0
   23.7703   11.7366   11.4666 O   0  0  0  0  0  0  0  0  0  0  0  0
   15.7740   10.2192   12.0415 C   0  0  0  0  0  0  0  0  0  0  0  0
   16.1702   10.9717   13.1739 N   0  0  0  0  0  0  0  0  0  0  0  0
  1  2  1  0
  2  3  2  0
  3  4  1  0
  3  5  1  0
  5  6  2  0
  6  7  1  0
  7  8  1  0
  8  9  1  0
  9 10  2  0
  9 11  1  0
 11 12  1  0
 12 13  1  0
 13 14  1  0
 14 15  1  0
  7 16  2  0
 16 17  1  0
 16  2  1  0
M  END
>  <ref_pdb>  (320) 
c0270a

>  <inchikey>  (320) 
SZFDWJXYUFXAMZ-UHFFFAOYSA-N

>  <original ID>  (320) 
SZFDWJXYUFXAMZ-UHFFFAOYSA-N

>  <generation_date>  (320) 
None

>  <alias>  (320) 
None

>  <tags>  (320) 
[]

>  <ref_mols>  (320) 
c0692a,c1116a

>  <ref_url>  (320) 
None

>  <submitter_name>  (320) 
None

>  <exports>  (320) 
nan

>  <original SMILES>  (320) 
Cc1c(F)ccc(NC(=O)COCCO)c1N

>  <method>  (320) 
None

>  <submitter_email>  (320) 
None

>  <HIPPO ID>  (320) 
112536

$$$$
YRWUZVHFCAJEAM-UHFFFAOYSA-N
     RDKit          3D

 17 17  0  0  0  0  0  0  0  0999 V2000
   14.3481    9.3763   13.8513 C   0  0  0  0  0  0  0  0  0  0  0  0
   14.9030    9.2863   12.4768 C   0  0  0  0  0  0  0  0  0  0  0  0
   15.8423   10.2505   12.1317 C   0  0  0  0  0  0  0  0  0  0  0  0
   16.3834   10.2674   10.8594 C   0  0  0  0  0  0  0  0  0  0  0  0
   17.5302   11.0303   10.5768 N   0  0  0  0  0  0  0  0  0  0  0  0
   18.0327   12.0616   11.3448 C   0  0  0  0  0  0  0  0  0  0  0  0
   17.3895   12.7029   12.1750 O   0  0  0  0  0  0  0  0  0  0  0  0
   19.5029   12.3970   11.0798 C   0  0  0  0  0  0  0  0  0  0  0  0
   20.1718   11.3578   10.3766 O   0  0  0  0  0  0  0  0  0  0  0  0
   21.5861   11.3504   10.6029 C   0  0  0  0  0  0  0  0  0  0  0  0
   22.3486   12.4353    9.8425 C   0  0  0  0  0  0  0  0  0  0  0  0
   23.7136   12.4471   10.2165 O   0  0  0  0  0  0  0  0  0  0  0  0
   15.8510    9.4153    9.8785 C   0  0  0  0  0  0  0  0  0  0  0  0
   16.2990    9.4334    8.5639 N   0  0  0  0  0  0  0  0  0  0  0  0
   14.9580    8.4124   10.2294 C   0  0  0  0  0  0  0  0  0  0  0  0
   14.5088    8.3376   11.5293 C   0  0  0  0  0  0  0  0  0  0  0  0
   13.6090    7.3885   11.8265 F   0  0  0  0  0  0  0  0  0  0  0  0
  1  2  1  0
  2  3  2  0
  3  4  1  0
  4  5  1  0
  5  6  1  0
  6  7  2  0
  6  8  1  0
  8  9  1  0
  9 10  1  0
 10 11  1  0
 11 12  1  0
  4 13  2  0
 13 14  1  0
 13 15  1  0
 15 16  2  0
 16 17  1  0
 16  2  1  0
M  END
>  <ref_pdb>  (321) 
c0270a

>  <inchikey>  (321) 
YRWUZVHFCAJEAM-UHFFFAOYSA-N

>  <original ID>  (321) 
YRWUZVHFCAJEAM-UHFFFAOYSA-N

>  <generation_date>  (321) 
None

>  <alias>  (321) 
None

>  <tags>  (321) 
[]

>  <ref_mols>  (321) 
c0692a,c1116a

>  <ref_url>  (321) 
None

>  <submitter_name>  (321) 
None

>  <exports>  (321) 
nan

>  <original SMILES>  (321) 
Cc1cc(NC(=O)COCCO)c(N)cc1F

>  <method>  (321) 
None

>  <submitter_email>  (321) 
None

>  <HIPPO ID>  (321) 
112547

$$$$
AZIIJXFZMVZANA-UHFFFAOYSA-N
     RDKit          3D

 17 17  0  0  0  0  0  0  0  0999 V2000
   16.2522    9.4685    8.5753 N   0  0  0  0  0  0  0  0  0  0  0  0
   15.7731    9.3642    9.8725 C   0  0  0  0  0  0  0  0  0  0  0  0
   14.9525    8.2730   10.1528 C   0  0  0  0  0  0  0  0  0  0  0  0
   14.5228    8.0281   11.4475 C   0  0  0  0  0  0  0  0  0  0  0  0
   13.4024    6.2728   11.7241 I   0  0  0  0  0  0  0  0  0  0  0  0
   14.8571    8.9470   12.4456 C   0  0  0  0  0  0  0  0  0  0  0  0
   14.2952    8.9031   14.0604 Cl  0  0  0  0  0  0  0  0  0  0  0  0
   15.6997   10.0191   12.1745 C   0  0  0  0  0  0  0  0  0  0  0  0
   16.2346   10.1832   10.9093 C   0  0  0  0  0  0  0  0  0  0  0  0
   17.3087   11.0688   10.6852 N   0  0  0  0  0  0  0  0  0  0  0  0
   17.6826   12.0980   11.5252 C   0  0  0  0  0  0  0  0  0  0  0  0
   16.9621   12.6018   12.3860 O   0  0  0  0  0  0  0  0  0  0  0  0
   19.0880   12.6440   11.3113 C   0  0  0  0  0  0  0  0  0  0  0  0
   20.0035   11.6686   10.8522 O   0  0  0  0  0  0  0  0  0  0  0  0
   21.3294   12.2126   10.7837 C   0  0  0  0  0  0  0  0  0  0  0  0
   22.3164   11.0745   10.9305 C   0  0  0  0  0  0  0  0  0  0  0  0
   22.4569   10.7005   12.3043 O   0  0  0  0  0  0  0  0  0  0  0  0
  1  2  1  0
  2  3  2  0
  3  4  1  0
  4  5  1  0
  4  6  2  0
  6  7  1  0
  6  8  1  0
  8  9  2  0
  9 10  1  0
 10 11  1  0
 11 12  2  0
 11 13  1  0
 13 14  1  0
 14 15  1  0
 15 16  1  0
 16 17  1  0
  9  2  1  0
M  END
>  <ref_pdb>  (322) 
c0270a

>  <inchikey>  (322) 
AZIIJXFZMVZANA-UHFFFAOYSA-N

>  <original ID>  (322) 
AZIIJXFZMVZANA-UHFFFAOYSA-N

>  <generation_date>  (322) 
None

>  <alias>  (322) 
None

>  <tags>  (322) 
[]

>  <ref_mols>  (322) 
c0692a,c1116a

>  <ref_url>  (322) 
None

>  <submitter_name>  (322) 
None

>  <exports>  (322) 
nan

>  <original SMILES>  (322) 
Nc1cc(I)c(Cl)cc1NC(=O)COCCO

>  <method>  (322) 
None

>  <submitter_email>  (322) 
None

>  <HIPPO ID>  (322) 
112617

$$$$
BWSJZFOCRGAJBC-UHFFFAOYSA-N
     RDKit          3D

 17 17  0  0  0  0  0  0  0  0999 V2000
   16.2428    9.4624    8.5518 N   0  0  0  0  0  0  0  0  0  0  0  0
   15.7680    9.3657    9.8512 C   0  0  0  0  0  0  0  0  0  0  0  0
   14.9239    8.2959   10.1393 C   0  0  0  0  0  0  0  0  0  0  0  0
   14.5101    8.0555   11.4393 C   0  0  0  0  0  0  0  0  0  0  0  0
   13.5099    6.6681   11.6829 Cl  0  0  0  0  0  0  0  0  0  0  0  0
   14.9008    8.9422   12.4445 C   0  0  0  0  0  0  0  0  0  0  0  0
   14.3607    8.8602   14.4270 I   0  0  0  0  0  0  0  0  0  0  0  0
   15.7505   10.0051   12.1589 C   0  0  0  0  0  0  0  0  0  0  0  0
   16.2540   10.1748   10.8823 C   0  0  0  0  0  0  0  0  0  0  0  0
   17.3299   11.0530   10.6538 N   0  0  0  0  0  0  0  0  0  0  0  0
   17.6952   12.0894   11.4877 C   0  0  0  0  0  0  0  0  0  0  0  0
   16.9603   12.6109   12.3265 O   0  0  0  0  0  0  0  0  0  0  0  0
   19.1114   12.6074   11.3059 C   0  0  0  0  0  0  0  0  0  0  0  0
   20.0074   11.6437   10.7803 O   0  0  0  0  0  0  0  0  0  0  0  0
   21.3459   11.9819   11.1809 C   0  0  0  0  0  0  0  0  0  0  0  0
   22.3537   11.2192   10.3516 C   0  0  0  0  0  0  0  0  0  0  0  0
   22.4447   11.8389    9.0872 O   0  0  0  0  0  0  0  0  0  0  0  0
  1  2  1  0
  2  3  2  0
  3  4  1  0
  4  5  1  0
  4  6  2  0
  6  7  1  0
  6  8  1  0
  8  9  2  0
  9 10  1  0
 10 11  1  0
 11 12  2  0
 11 13  1  0
 13 14  1  0
 14 15  1  0
 15 16  1  0
 16 17  1  0
  9  2  1  0
M  END
>  <ref_pdb>  (323) 
c0270a

>  <inchikey>  (323) 
BWSJZFOCRGAJBC-UHFFFAOYSA-N

>  <original ID>  (323) 
BWSJZFOCRGAJBC-UHFFFAOYSA-N

>  <generation_date>  (323) 
None

>  <alias>  (323) 
None

>  <tags>  (323) 
[]

>  <ref_mols>  (323) 
c0692a,c1116a

>  <ref_url>  (323) 
None

>  <submitter_name>  (323) 
None

>  <exports>  (323) 
nan

>  <original SMILES>  (323) 
Nc1cc(Cl)c(I)cc1NC(=O)COCCO

>  <method>  (323) 
None

>  <submitter_email>  (323) 
None

>  <HIPPO ID>  (323) 
112618

$$$$
QRWLQPGNBNPMLA-UHFFFAOYSA-N
     RDKit          3D

 17 17  0  0  0  0  0  0  0  0999 V2000
   18.4505   10.6152   10.2055 C   0  0  0  0  0  0  0  0  0  0  0  0
   17.3956   11.3678   10.8258 N   0  0  0  0  0  0  0  0  0  0  0  0
   17.7375   12.4935   11.5729 C   0  0  0  0  0  0  0  0  0  0  0  0
   16.8941   13.1741   12.1710 O   0  0  0  0  0  0  0  0  0  0  0  0
   19.2154   12.9871   11.5545 C   0  0  0  0  0  0  0  0  0  0  0  0
   20.2259   12.0025   11.4445 O   0  0  0  0  0  0  0  0  0  0  0  0
   21.4425   12.4756   10.8822 C   0  0  0  0  0  0  0  0  0  0  0  0
   22.1935   11.2936   10.2866 C   0  0  0  0  0  0  0  0  0  0  0  0
   23.3661   11.7634    9.6531 O   0  0  0  0  0  0  0  0  0  0  0  0
   16.2084   10.5822   11.0231 C   0  0  0  0  0  0  0  0  0  0  0  0
   15.7165    9.8240    9.9308 C   0  0  0  0  0  0  0  0  0  0  0  0
   14.8991    8.7153   10.1118 C   0  0  0  0  0  0  0  0  0  0  0  0
   14.5569    8.3544   11.4007 C   0  0  0  0  0  0  0  0  0  0  0  0
   14.9169    9.1893   12.4650 C   0  0  0  0  0  0  0  0  0  0  0  0
   14.3100    8.7877   14.2041 Br  0  0  0  0  0  0  0  0  0  0  0  0
   15.6912   10.3452   12.3013 C   0  0  0  0  0  0  0  0  0  0  0  0
   16.1539   11.0348   13.4524 N   0  0  0  0  0  0  0  0  0  0  0  0
  1  2  1  0
  2  3  1  0
  3  4  2  0
  3  5  1  0
  5  6  1  0
  6  7  1  0
  7  8  1  0
  8  9  1  0
  2 10  1  0
 10 11  2  0
 11 12  1  0
 12 13  2  0
 13 14  1  0
 14 15  1  0
 14 16  2  0
 16 17  1  0
 16 10  1  0
M  END
>  <ref_pdb>  (324) 
c0270a

>  <inchikey>  (324) 
QRWLQPGNBNPMLA-UHFFFAOYSA-N

>  <original ID>  (324) 
QRWLQPGNBNPMLA-UHFFFAOYSA-N

>  <generation_date>  (324) 
None

>  <alias>  (324) 
None

>  <tags>  (324) 
[]

>  <ref_mols>  (324) 
c0692a,c1116a

>  <ref_url>  (324) 
None

>  <submitter_name>  (324) 
None

>  <exports>  (324) 
nan

>  <original SMILES>  (324) 
CN(C(=O)COCCO)c1cccc(Br)c1N

>  <method>  (324) 
None

>  <submitter_email>  (324) 
None

>  <HIPPO ID>  (324) 
112621

$$$$
SNOJPODTDPQAQD-UHFFFAOYSA-N
     RDKit          3D

 17 17  0  0  0  0  0  0  0  0999 V2000
   14.3861    9.1622   13.8565 C   0  0  0  0  0  0  0  0  0  0  0  0
   14.8896    9.1100   12.4558 C   0  0  0  0  0  0  0  0  0  0  0  0
   15.7744   10.1435   12.1245 C   0  0  0  0  0  0  0  0  0  0  0  0
   16.3174   10.2284   10.8560 C   0  0  0  0  0  0  0  0  0  0  0  0
   17.4450   11.0296   10.5883 N   0  0  0  0  0  0  0  0  0  0  0  0
   17.9484   12.0363   11.3872 C   0  0  0  0  0  0  0  0  0  0  0  0
   17.3112   12.6246   12.2606 O   0  0  0  0  0  0  0  0  0  0  0  0
   19.4062   12.4192   11.0978 C   0  0  0  0  0  0  0  0  0  0  0  0
   20.1319   11.3514   10.4977 O   0  0  0  0  0  0  0  0  0  0  0  0
   21.5241   11.3641   10.8473 C   0  0  0  0  0  0  0  0  0  0  0  0
   22.4117   12.1997    9.9234 C   0  0  0  0  0  0  0  0  0  0  0  0
   22.0156   13.5660    9.8687 O   0  0  0  0  0  0  0  0  0  0  0  0
   15.8105    9.3939    9.8540 C   0  0  0  0  0  0  0  0  0  0  0  0
   16.2631    9.4574    8.5424 N   0  0  0  0  0  0  0  0  0  0  0  0
   14.9745    8.3330   10.1817 C   0  0  0  0  0  0  0  0  0  0  0  0
   14.5523    8.1538   11.4877 C   0  0  0  0  0  0  0  0  0  0  0  0
   13.5198    6.5908   11.8136 Br  0  0  0  0  0  0  0  0  0  0  0  0
  1  2  1  0
  2  3  2  0
  3  4  1  0
  4  5  1  0
  5  6  1  0
  6  7  2  0
  6  8  1  0
  8  9  1  0
  9 10  1  0
 10 11  1  0
 11 12  1  0
  4 13  2  0
 13 14  1  0
 13 15  1  0
 15 16  2  0
 16 17  1  0
 16  2  1  0
M  END
>  <ref_pdb>  (325) 
c0270a

>  <inchikey>  (325) 
SNOJPODTDPQAQD-UHFFFAOYSA-N

>  <original ID>  (325) 
SNOJPODTDPQAQD-UHFFFAOYSA-N

>  <generation_date>  (325) 
None

>  <alias>  (325) 
None

>  <tags>  (325) 
[]

>  <ref_mols>  (325) 
c0692a,c1116a

>  <ref_url>  (325) 
None

>  <submitter_name>  (325) 
None

>  <exports>  (325) 
nan

>  <original SMILES>  (325) 
Cc1cc(NC(=O)COCCO)c(N)cc1Br

>  <method>  (325) 
None

>  <submitter_email>  (325) 
None

>  <HIPPO ID>  (325) 
112622

$$$$
IINXUWPYYBUSGZ-UHFFFAOYSA-N
     RDKit          3D

 17 17  0  0  0  0  0  0  0  0999 V2000
   15.8759   10.9225   13.1354 N   0  0  0  0  0  0  0  0  0  0  0  0
   15.6507   10.1566   11.9581 C   0  0  0  0  0  0  0  0  0  0  0  0
   16.3733   10.2684   10.7692 C   0  0  0  0  0  0  0  0  0  0  0  0
   17.5299   11.0486   10.6071 N   0  0  0  0  0  0  0  0  0  0  0  0
   17.9287   12.1429   11.3338 C   0  0  0  0  0  0  0  0  0  0  0  0
   17.1853   12.8324   12.0337 O   0  0  0  0  0  0  0  0  0  0  0  0
   19.4042   12.4936   11.1852 C   0  0  0  0  0  0  0  0  0  0  0  0
   20.1578   11.4229   10.6281 O   0  0  0  0  0  0  0  0  0  0  0  0
   21.5544   11.7414   10.4965 C   0  0  0  0  0  0  0  0  0  0  0  0
   22.3051   11.7004   11.8264 C   0  0  0  0  0  0  0  0  0  0  0  0
   21.9810   12.8374   12.6232 O   0  0  0  0  0  0  0  0  0  0  0  0
   16.0125    9.4650    9.6794 C   0  0  0  0  0  0  0  0  0  0  0  0
   15.0439    8.4748    9.7970 C   0  0  0  0  0  0  0  0  0  0  0  0
   14.5241    8.1805   11.0384 C   0  0  0  0  0  0  0  0  0  0  0  0
   13.4996    6.5943   11.2131 Br  0  0  0  0  0  0  0  0  0  0  0  0
   14.8229    9.0340   12.0972 C   0  0  0  0  0  0  0  0  0  0  0  0
   14.3448    8.8192   13.3594 O   0  0  0  0  0  0  0  0  0  0  0  0
  1  2  1  0
  2  3  2  0
  3  4  1  0
  4  5  1  0
  5  6  2  0
  5  7  1  0
  7  8  1  0
  8  9  1  0
  9 10  1  0
 10 11  1  0
  3 12  1  0
 12 13  2  0
 13 14  1  0
 14 15  1  0
 14 16  2  0
 16 17  1  0
 16  2  1  0
M  END
>  <ref_pdb>  (326) 
c0270a

>  <inchikey>  (326) 
IINXUWPYYBUSGZ-UHFFFAOYSA-N

>  <original ID>  (326) 
IINXUWPYYBUSGZ-UHFFFAOYSA-N

>  <generation_date>  (326) 
None

>  <alias>  (326) 
None

>  <tags>  (326) 
[]

>  <ref_mols>  (326) 
c0692a,c1116a

>  <ref_url>  (326) 
None

>  <submitter_name>  (326) 
None

>  <exports>  (326) 
nan

>  <original SMILES>  (326) 
Nc1c(NC(=O)COCCO)ccc(Br)c1O

>  <method>  (326) 
None

>  <submitter_email>  (326) 
None

>  <HIPPO ID>  (326) 
112623

$$$$
QXAPGGAADJSTOB-UHFFFAOYSA-N
     RDKit          3D

 17 17  0  0  0  0  0  0  0  0999 V2000
   15.7014    8.9965    8.5747 C   0  0  0  0  0  0  0  0  0  0  0  0
   15.6545   10.2278    9.2772 N   0  0  0  0  0  0  0  0  0  0  0  0
   15.6439    9.9703   10.6498 C   0  0  0  0  0  0  0  0  0  0  0  0
   14.8292    8.9596   11.1827 C   0  0  0  0  0  0  0  0  0  0  0  0
   14.6766    8.8395   12.5434 C   0  0  0  0  0  0  0  0  0  0  0  0
   15.1760    9.8536   13.3331 C   0  0  0  0  0  0  0  0  0  0  0  0
   14.7173    9.9467   15.1227 Br  0  0  0  0  0  0  0  0  0  0  0  0
   16.0122   10.8369   12.8391 C   0  0  0  0  0  0  0  0  0  0  0  0
   16.3322   10.8252   11.5002 C   0  0  0  0  0  0  0  0  0  0  0  0
   17.4391   11.5278   11.0008 N   0  0  0  0  0  0  0  0  0  0  0  0
   18.0245   12.5924   11.6379 C   0  0  0  0  0  0  0  0  0  0  0  0
   17.4238   13.3557   12.3912 O   0  0  0  0  0  0  0  0  0  0  0  0
   19.4955   12.7922   11.3123 C   0  0  0  0  0  0  0  0  0  0  0  0
   20.1110   11.5331   11.0871 O   0  0  0  0  0  0  0  0  0  0  0  0
   21.5146   11.5512   11.3891 C   0  0  0  0  0  0  0  0  0  0  0  0
   22.3396   11.9908   10.1954 C   0  0  0  0  0  0  0  0  0  0  0  0
   22.1491   11.0054    9.2150 O   0  0  0  0  0  0  0  0  0  0  0  0
  1  2  1  0
  2  3  1  0
  3  4  2  0
  4  5  1  0
  5  6  2  0
  6  7  1  0
  6  8  1  0
  8  9  2  0
  9 10  1  0
 10 11  1  0
 11 12  2  0
 11 13  1  0
 13 14  1  0
 14 15  1  0
 15 16  1  0
 16 17  1  0
  9  3  1  0
M  END
>  <ref_pdb>  (327) 
c0270a

>  <inchikey>  (327) 
QXAPGGAADJSTOB-UHFFFAOYSA-N

>  <original ID>  (327) 
QXAPGGAADJSTOB-UHFFFAOYSA-N

>  <generation_date>  (327) 
None

>  <alias>  (327) 
None

>  <tags>  (327) 
[]

>  <ref_mols>  (327) 
c0692a,c1116a

>  <ref_url>  (327) 
None

>  <submitter_name>  (327) 
None

>  <exports>  (327) 
nan

>  <original SMILES>  (327) 
CNc1ccc(Br)cc1NC(=O)COCCO

>  <method>  (327) 
None

>  <submitter_email>  (327) 
None

>  <HIPPO ID>  (327) 
112626

$$$$
BOZZOOCSIJXOFE-QMMMGPOBSA-N
     RDKit          3D

 17 17  0  0  0  0  0  0  0  0999 V2000
   21.5036   11.3568   10.3663 C   0  0  0  0  0  0  0  0  0  0  0  0
   20.1116   11.2369   10.6420 O   0  0  0  0  0  0  0  0  0  0  0  0
   19.5057   12.4319   11.1282 C   0  0  2  0  0  0  0  0  0  0  0  0
   20.0362   13.0524   12.4335 C   0  0  0  0  0  0  0  0  0  0  0  0
   19.4568   13.8600   13.1419 O   0  0  0  0  0  0  0  0  0  0  0  0
   21.2762   12.6518   12.7762 O   0  0  0  0  0  0  0  0  0  0  0  0
   17.9923   12.1649   11.2645 C   0  0  0  0  0  0  0  0  0  0  0  0
   17.2401   12.9196   11.8820 O   0  0  0  0  0  0  0  0  0  0  0  0
   17.5246   11.0410   10.6069 N   0  0  0  0  0  0  0  0  0  0  0  0
   16.3713   10.3217   10.9683 C   0  0  0  0  0  0  0  0  0  0  0  0
   15.8414   10.4409   12.2371 C   0  0  0  0  0  0  0  0  0  0  0  0
   14.9615    9.4796   12.6893 C   0  0  0  0  0  0  0  0  0  0  0  0
   14.3149    9.7129   14.4215 Br  0  0  0  0  0  0  0  0  0  0  0  0
   14.5977    8.3939   11.9026 C   0  0  0  0  0  0  0  0  0  0  0  0
   14.9988    8.3678   10.5791 C   0  0  0  0  0  0  0  0  0  0  0  0
   15.8434    9.3667   10.0929 C   0  0  0  0  0  0  0  0  0  0  0  0
   16.2959    9.2569    8.7924 N   0  0  0  0  0  0  0  0  0  0  0  0
  1  2  1  0
  3  2  1  1
  3  4  1  0
  4  5  2  0
  4  6  1  0
  3  7  1  0
  7  8  2  0
  7  9  1  0
  9 10  1  0
 10 11  2  0
 11 12  1  0
 12 13  1  0
 12 14  2  0
 14 15  1  0
 15 16  2  0
 16 17  1  0
 16 10  1  0
M  END
>  <ref_pdb>  (328) 
c0270a

>  <inchikey>  (328) 
BOZZOOCSIJXOFE-QMMMGPOBSA-N

>  <original ID>  (328) 
BOZZOOCSIJXOFE-QMMMGPOBSA-N

>  <generation_date>  (328) 
None

>  <alias>  (328) 
None

>  <tags>  (328) 
[]

>  <ref_mols>  (328) 
c0692a,c1116a

>  <ref_url>  (328) 
None

>  <submitter_name>  (328) 
None

>  <exports>  (328) 
nan

>  <original SMILES>  (328) 
CO[C@H](C(=O)O)C(=O)Nc1cc(Br)ccc1N

>  <method>  (328) 
None

>  <submitter_email>  (328) 
None

>  <HIPPO ID>  (328) 
112631

$$$$
BOZZOOCSIJXOFE-MRVPVSSYSA-N
     RDKit          3D

 17 17  0  0  0  0  0  0  0  0999 V2000
   21.5023   11.3834   10.5277 C   0  0  0  0  0  0  0  0  0  0  0  0
   20.0852   11.4551   10.3866 O   0  0  0  0  0  0  0  0  0  0  0  0
   19.5152   12.4574   11.2248 C   0  0  1  0  0  0  0  0  0  0  0  0
   19.7886   13.8916   10.7905 C   0  0  0  0  0  0  0  0  0  0  0  0
   20.0974   14.2742    9.6701 O   0  0  0  0  0  0  0  0  0  0  0  0
   19.6817   14.7838   11.7942 O   0  0  0  0  0  0  0  0  0  0  0  0
   18.0103   12.1972   11.3786 C   0  0  0  0  0  0  0  0  0  0  0  0
   17.3140   12.8867   12.1237 O   0  0  0  0  0  0  0  0  0  0  0  0
   17.5233   11.1262   10.6446 N   0  0  0  0  0  0  0  0  0  0  0  0
   16.3903   10.3510   10.9671 C   0  0  0  0  0  0  0  0  0  0  0  0
   15.8526   10.4024   12.2379 C   0  0  0  0  0  0  0  0  0  0  0  0
   14.9794    9.4134   12.6460 C   0  0  0  0  0  0  0  0  0  0  0  0
   14.3088    9.5864   14.3792 Br  0  0  0  0  0  0  0  0  0  0  0  0
   14.6195    8.3624   11.8107 C   0  0  0  0  0  0  0  0  0  0  0  0
   15.0356    8.3899   10.4908 C   0  0  0  0  0  0  0  0  0  0  0  0
   15.9203    9.3825   10.0642 C   0  0  0  0  0  0  0  0  0  0  0  0
   16.1666    9.4754    8.7062 N   0  0  0  0  0  0  0  0  0  0  0  0
  1  2  1  0
  3  2  1  6
  3  4  1  0
  4  5  2  0
  4  6  1  0
  3  7  1  0
  7  8  2  0
  7  9  1  0
  9 10  1  0
 10 11  2  0
 11 12  1  0
 12 13  1  0
 12 14  2  0
 14 15  1  0
 15 16  2  0
 16 17  1  0
 16 10  1  0
M  END
>  <ref_pdb>  (329) 
c0270a

>  <inchikey>  (329) 
BOZZOOCSIJXOFE-MRVPVSSYSA-N

>  <original ID>  (329) 
BOZZOOCSIJXOFE-MRVPVSSYSA-N

>  <generation_date>  (329) 
None

>  <alias>  (329) 
None

>  <tags>  (329) 
[]

>  <ref_mols>  (329) 
c0692a,c1116a

>  <ref_url>  (329) 
None

>  <submitter_name>  (329) 
None

>  <exports>  (329) 
nan

>  <original SMILES>  (329) 
CO[C@@H](C(=O)O)C(=O)Nc1cc(Br)ccc1N

>  <method>  (329) 
None

>  <submitter_email>  (329) 
None

>  <HIPPO ID>  (329) 
112632

$$$$
IWYCIHQMGCNINY-UHFFFAOYSA-N
     RDKit          3D

 17 18  0  0  0  0  0  0  0  0999 V2000
   15.4297   13.0874   13.8877 O   0  0  0  0  0  0  0  0  0  0  0  0
   15.1921   12.0334   13.2905 C   0  0  0  0  0  0  0  0  0  0  0  0
   13.7765   11.6787   13.0331 C   0  0  0  0  0  0  0  0  0  0  0  0
   13.4586   12.0032   11.6767 O   0  0  0  0  0  0  0  0  0  0  0  0
   13.1440   13.3699   11.6398 C   0  0  0  0  0  0  0  0  0  0  0  0
   12.4686   13.8365   10.3594 C   0  0  0  0  0  0  0  0  0  0  0  0
   11.0858   13.5079   10.2156 O   0  0  0  0  0  0  0  0  0  0  0  0
   16.1673   11.2409   12.6985 N   0  0  0  0  0  0  0  0  0  0  0  0
   17.2325   12.0984   12.1848 C   0  0  0  0  0  0  0  0  0  0  0  0
   18.0470   11.4768   11.0741 C   0  0  0  0  0  0  0  0  0  0  0  0
   17.1263   10.9510   10.0982 N   0  0  0  0  0  0  0  0  0  0  0  0
   16.2417   10.0066   10.6043 C   0  0  0  0  0  0  0  0  0  0  0  0
   15.6909    9.0686    9.7379 C   0  0  0  0  0  0  0  0  0  0  0  0
   14.8752    8.0594   10.2179 C   0  0  0  0  0  0  0  0  0  0  0  0
   14.6303    7.9818   11.5791 C   0  0  0  0  0  0  0  0  0  0  0  0
   15.0885    8.9910   12.4340 C   0  0  0  0  0  0  0  0  0  0  0  0
   15.8201   10.0684   11.9295 C   0  0  0  0  0  0  0  0  0  0  0  0
  1  2  2  0
  2  3  1  0
  3  4  1  0
  4  5  1  0
  5  6  1  0
  6  7  1  0
  2  8  1  0
  8  9  1  0
  9 10  1  0
 10 11  1  0
 11 12  1  0
 12 13  2  0
 13 14  1  0
 14 15  2  0
 15 16  1  0
 16 17  2  0
 17  8  1  0
 17 12  1  0
M  END
>  <ref_pdb>  (330) 
c0270a

>  <inchikey>  (330) 
IWYCIHQMGCNINY-UHFFFAOYSA-N

>  <original ID>  (330) 
IWYCIHQMGCNINY-UHFFFAOYSA-N

>  <generation_date>  (330) 
None

>  <alias>  (330) 
None

>  <tags>  (330) 
[]

>  <ref_mols>  (330) 
c0692a,c1116a

>  <ref_url>  (330) 
None

>  <submitter_name>  (330) 
None

>  <exports>  (330) 
nan

>  <original SMILES>  (330) 
O=C(COCCO)N1CCNc2ccccc21

>  <method>  (330) 
None

>  <submitter_email>  (330) 
None

>  <HIPPO ID>  (330) 
112652

$$$$
GCDJWZNHDYAHNW-UHFFFAOYSA-N
     RDKit          3D

 17 17  0  0  0  0  0  0  0  0999 V2000
   14.3752    9.2044   13.8604 C   0  0  0  0  0  0  0  0  0  0  0  0
   14.8882    9.1465   12.4636 C   0  0  0  0  0  0  0  0  0  0  0  0
   15.7736   10.1754   12.1283 C   0  0  0  0  0  0  0  0  0  0  0  0
   16.3216   10.2454   10.8616 C   0  0  0  0  0  0  0  0  0  0  0  0
   17.4482   11.0443   10.5921 N   0  0  0  0  0  0  0  0  0  0  0  0
   17.9752   12.0339   11.3986 C   0  0  0  0  0  0  0  0  0  0  0  0
   17.3640   12.6202   12.2905 O   0  0  0  0  0  0  0  0  0  0  0  0
   19.4385   12.3822   11.0971 C   0  0  0  0  0  0  0  0  0  0  0  0
   20.0681   11.3521   10.3473 O   0  0  0  0  0  0  0  0  0  0  0  0
   21.4563   11.1734   10.6532 C   0  0  0  0  0  0  0  0  0  0  0  0
   22.3748   12.3157   10.2245 C   0  0  0  0  0  0  0  0  0  0  0  0
   22.4209   12.5001    8.8256 O   0  0  0  0  0  0  0  0  0  0  0  0
   15.8234    9.3974    9.8648 C   0  0  0  0  0  0  0  0  0  0  0  0
   16.2865    9.4441    8.5558 N   0  0  0  0  0  0  0  0  0  0  0  0
   14.9820    8.3429   10.1978 C   0  0  0  0  0  0  0  0  0  0  0  0
   14.5505    8.1834   11.5020 C   0  0  0  0  0  0  0  0  0  0  0  0
   13.5856    6.7866   11.8242 Cl  0  0  0  0  0  0  0  0  0  0  0  0
  1  2  1  0
  2  3  2  0
  3  4  1  0
  4  5  1  0
  5  6  1  0
  6  7  2  0
  6  8  1  0
  8  9  1  0
  9 10  1  0
 10 11  1  0
 11 12  1  0
  4 13  2  0
 13 14  1  0
 13 15  1  0
 15 16  2  0
 16 17  1  0
 16  2  1  0
M  END
>  <ref_pdb>  (331) 
c0270a

>  <inchikey>  (331) 
GCDJWZNHDYAHNW-UHFFFAOYSA-N

>  <original ID>  (331) 
GCDJWZNHDYAHNW-UHFFFAOYSA-N

>  <generation_date>  (331) 
None

>  <alias>  (331) 
None

>  <tags>  (331) 
[]

>  <ref_mols>  (331) 
c0692a,c1116a

>  <ref_url>  (331) 
None

>  <submitter_name>  (331) 
None

>  <exports>  (331) 
nan

>  <original SMILES>  (331) 
Cc1cc(NC(=O)COCCO)c(N)cc1Cl

>  <method>  (331) 
None

>  <submitter_email>  (331) 
None

>  <HIPPO ID>  (331) 
112676

$$$$
OJPSZTRAVHUUHL-SECBINFHSA-N
     RDKit          3D

 18 19  0  0  0  0  0  0  0  0999 V2000
   16.0064   11.1992   13.1194 N   0  0  0  0  0  0  0  0  0  0  0  0
   15.7596   10.3571   12.0010 C   0  0  0  0  0  0  0  0  0  0  0  0
   14.8596    9.3138   12.2115 C   0  0  0  0  0  0  0  0  0  0  0  0
   14.3020    9.2335   13.4549 O   0  0  0  0  0  0  0  0  0  0  0  0
   14.5404    8.3700   11.2460 C   0  0  0  0  0  0  0  0  0  0  0  0
   15.1134    8.4859    9.9970 C   0  0  0  0  0  0  0  0  0  0  0  0
   16.1197    9.4281    9.8007 C   0  0  0  0  0  0  0  0  0  0  0  0
   16.5014   10.3188   10.8187 C   0  0  0  0  0  0  0  0  0  0  0  0
   17.6945   11.0347   10.6094 N   0  0  0  0  0  0  0  0  0  0  0  0
   18.0942   12.2004   11.2297 C   0  0  0  0  0  0  0  0  0  0  0  0
   17.3070   12.9518   11.8068 O   0  0  0  0  0  0  0  0  0  0  0  0
   19.5887   12.5273   11.0689 C   0  0  2  0  0  0  0  0  0  0  0  0
   20.2741   11.3786   10.5605 O   0  0  0  0  0  0  0  0  0  0  0  0
   21.6916   11.5953   10.5354 C   0  0  0  0  0  0  0  0  0  0  0  0
   22.1974   11.8105   11.9546 C   0  0  0  0  0  0  0  0  0  0  0  0
   21.4934   12.8905   12.6125 N   0  0  0  0  0  0  0  0  0  0  0  0
   20.1714   13.1633   12.3497 C   0  0  0  0  0  0  0  0  0  0  0  0
   19.5522   13.9391   13.0724 O   0  0  0  0  0  0  0  0  0  0  0  0
  1  2  1  0
  2  3  2  0
  3  4  1  0
  3  5  1  0
  5  6  2  0
  6  7  1  0
  7  8  2  0
  8  9  1  0
  9 10  1  0
 10 11  2  0
 12 10  1  1
 12 13  1  0
 13 14  1  0
 14 15  1  0
 15 16  1  0
 16 17  1  0
 17 18  2  0
  8  2  1  0
 17 12  1  0
M  END
>  <ref_pdb>  (332) 
c0270a

>  <inchikey>  (332) 
OJPSZTRAVHUUHL-SECBINFHSA-N

>  <original ID>  (332) 
OJPSZTRAVHUUHL-SECBINFHSA-N

>  <generation_date>  (332) 
None

>  <alias>  (332) 
None

>  <tags>  (332) 
[]

>  <ref_mols>  (332) 
c0692a,c1116a

>  <ref_url>  (332) 
None

>  <submitter_name>  (332) 
None

>  <exports>  (332) 
nan

>  <original SMILES>  (332) 
Nc1c(O)cccc1NC(=O)[C@@H]1OCCNC1=O

>  <method>  (332) 
None

>  <submitter_email>  (332) 
None

>  <HIPPO ID>  (332) 
112685

$$$$
SNAFPJORBRVQFU-SECBINFHSA-N
     RDKit          3D

 18 19  0  0  0  0  0  0  0  0999 V2000
   16.2075    9.4463    8.7100 N   0  0  0  0  0  0  0  0  0  0  0  0
   15.8929    9.3313   10.0507 C   0  0  0  0  0  0  0  0  0  0  0  0
   15.0185    8.3047   10.4142 C   0  0  0  0  0  0  0  0  0  0  0  0
   14.5245    8.2543   11.7027 C   0  0  0  0  0  0  0  0  0  0  0  0
   14.7960    9.3149   12.5571 C   0  0  0  0  0  0  0  0  0  0  0  0
   14.1366    9.4458   13.7064 F   0  0  0  0  0  0  0  0  0  0  0  0
   15.6804   10.3166   12.2311 C   0  0  0  0  0  0  0  0  0  0  0  0
   16.3029   10.2895   10.9985 C   0  0  0  0  0  0  0  0  0  0  0  0
   17.4128   11.1115   10.7073 N   0  0  0  0  0  0  0  0  0  0  0  0
   17.9879   12.0555   11.5537 C   0  0  0  0  0  0  0  0  0  0  0  0
   17.4745   12.4563   12.5939 O   0  0  0  0  0  0  0  0  0  0  0  0
   19.3508   12.5563   11.0572 C   0  0  2  0  0  0  0  0  0  0  0  0
   20.1060   11.4742   10.5201 O   0  0  0  0  0  0  0  0  0  0  0  0
   21.4329   11.3687   11.0426 C   0  0  0  0  0  0  0  0  0  0  0  0
   22.1158   12.7232   11.1665 C   0  0  0  0  0  0  0  0  0  0  0  0
   21.3581   13.5795   12.0488 N   0  0  0  0  0  0  0  0  0  0  0  0
   19.9908   13.6478   11.9371 C   0  0  0  0  0  0  0  0  0  0  0  0
   19.3699   14.5901   12.4191 O   0  0  0  0  0  0  0  0  0  0  0  0
  1  2  1  0
  2  3  2  0
  3  4  1  0
  4  5  2  0
  5  6  1  0
  5  7  1  0
  7  8  2  0
  8  9  1  0
  9 10  1  0
 10 11  2  0
 12 10  1  1
 12 13  1  0
 13 14  1  0
 14 15  1  0
 15 16  1  0
 16 17  1  0
 17 18  2  0
  8  2  1  0
 17 12  1  0
M  END
>  <ref_pdb>  (333) 
c0270a

>  <inchikey>  (333) 
SNAFPJORBRVQFU-SECBINFHSA-N

>  <original ID>  (333) 
SNAFPJORBRVQFU-SECBINFHSA-N

>  <generation_date>  (333) 
None

>  <alias>  (333) 
None

>  <tags>  (333) 
[]

>  <ref_mols>  (333) 
c0692a,c1116a

>  <ref_url>  (333) 
None

>  <submitter_name>  (333) 
None

>  <exports>  (333) 
nan

>  <original SMILES>  (333) 
Nc1ccc(F)cc1NC(=O)[C@@H]1OCCNC1=O

>  <method>  (333) 
None

>  <submitter_email>  (333) 
None

>  <HIPPO ID>  (333) 
112689

$$$$
SNAFPJORBRVQFU-VIFPVBQESA-N
     RDKit          3D

 18 19  0  0  0  0  0  0  0  0999 V2000
   16.3507    9.4467    8.6364 N   0  0  0  0  0  0  0  0  0  0  0  0
   15.9322    9.5015    9.9597 C   0  0  0  0  0  0  0  0  0  0  0  0
   15.0820    8.4888   10.3939 C   0  0  0  0  0  0  0  0  0  0  0  0
   14.5990    8.5259   11.6855 C   0  0  0  0  0  0  0  0  0  0  0  0
   14.8814    9.6381   12.4704 C   0  0  0  0  0  0  0  0  0  0  0  0
   14.2182    9.8478   13.6062 F   0  0  0  0  0  0  0  0  0  0  0  0
   15.8173   10.5802   12.0989 C   0  0  0  0  0  0  0  0  0  0  0  0
   16.4391   10.4471   10.8725 C   0  0  0  0  0  0  0  0  0  0  0  0
   17.6334   11.1397   10.5715 N   0  0  0  0  0  0  0  0  0  0  0  0
   18.1760   12.1983   11.2894 C   0  0  0  0  0  0  0  0  0  0  0  0
   17.5070   12.9444   12.0048 O   0  0  0  0  0  0  0  0  0  0  0  0
   19.7106   12.3213   11.2068 C   0  0  1  0  0  0  0  0  0  0  0  0
   20.2878   11.1532   10.6167 O   0  0  0  0  0  0  0  0  0  0  0  0
   21.7083   11.1600   10.8300 C   0  0  0  0  0  0  0  0  0  0  0  0
   22.3613   12.3466   10.1295 C   0  0  0  0  0  0  0  0  0  0  0  0
   21.6319   13.5868   10.3282 N   0  0  0  0  0  0  0  0  0  0  0  0
   20.2812   13.6061   10.5993 C   0  0  0  0  0  0  0  0  0  0  0  0
   19.6608   14.6368   10.3777 O   0  0  0  0  0  0  0  0  0  0  0  0
  1  2  1  0
  2  3  2  0
  3  4  1  0
  4  5  2  0
  5  6  1  0
  5  7  1  0
  7  8  2  0
  8  9  1  0
  9 10  1  0
 10 11  2  0
 12 10  1  6
 12 13  1  0
 13 14  1  0
 14 15  1  0
 15 16  1  0
 16 17  1  0
 17 18  2  0
  8  2  1  0
 17 12  1  0
M  END
>  <ref_pdb>  (334) 
c0270a

>  <inchikey>  (334) 
SNAFPJORBRVQFU-VIFPVBQESA-N

>  <original ID>  (334) 
SNAFPJORBRVQFU-VIFPVBQESA-N

>  <generation_date>  (334) 
None

>  <alias>  (334) 
None

>  <tags>  (334) 
[]

>  <ref_mols>  (334) 
c0692a,c1116a

>  <ref_url>  (334) 
None

>  <submitter_name>  (334) 
None

>  <exports>  (334) 
nan

>  <original SMILES>  (334) 
Nc1ccc(F)cc1NC(=O)[C@H]1OCCNC1=O

>  <method>  (334) 
None

>  <submitter_email>  (334) 
None

>  <HIPPO ID>  (334) 
112690

$$$$
OMXYIVNPWCKNQT-UHFFFAOYSA-N
     RDKit          3D

 18 18  0  0  0  0  0  0  0  0999 V2000
   21.9552   12.5780   12.0613 C   0  0  0  0  0  0  0  0  0  0  0  0
   21.4497   12.3116   10.6459 C   0  0  0  0  0  0  0  0  0  0  0  0
   22.1767   11.0988   10.0992 C   0  0  0  0  0  0  0  0  0  0  0  0
   21.7457   13.5307    9.7513 C   0  0  0  0  0  0  0  0  0  0  0  0
   20.0550   11.8945   10.6790 O   0  0  0  0  0  0  0  0  0  0  0  0
   19.1602   12.7768   11.1508 C   0  0  0  0  0  0  0  0  0  0  0  0
   19.3354   13.9669   11.3377 O   0  0  0  0  0  0  0  0  0  0  0  0
   17.8422   12.0976   11.5242 C   0  0  0  0  0  0  0  0  0  0  0  0
   17.3009   12.4856   12.5535 O   0  0  0  0  0  0  0  0  0  0  0  0
   17.3766   11.1162   10.6633 N   0  0  0  0  0  0  0  0  0  0  0  0
   16.2865   10.2584   10.9291 C   0  0  0  0  0  0  0  0  0  0  0  0
   15.6956   10.2034   12.1778 C   0  0  0  0  0  0  0  0  0  0  0  0
   14.8039    9.1946   12.4577 C   0  0  0  0  0  0  0  0  0  0  0  0
   14.1796    9.2559   13.6315 F   0  0  0  0  0  0  0  0  0  0  0  0
   14.5046    8.1955   11.5437 C   0  0  0  0  0  0  0  0  0  0  0  0
   14.9873    8.3190   10.2550 C   0  0  0  0  0  0  0  0  0  0  0  0
   15.8211    9.3893    9.9257 C   0  0  0  0  0  0  0  0  0  0  0  0
   16.2849    9.4478    8.6190 N   0  0  0  0  0  0  0  0  0  0  0  0
  1  2  1  0
  2  3  1  0
  2  4  1  0
  2  5  1  0
  5  6  1  0
  6  7  2  0
  6  8  1  0
  8  9  2  0
  8 10  1  0
 10 11  1  0
 11 12  2  0
 12 13  1  0
 13 14  1  0
 13 15  2  0
 15 16  1  0
 16 17  2  0
 17 18  1  0
 17 11  1  0
M  END
>  <ref_pdb>  (335) 
c0270a

>  <inchikey>  (335) 
OMXYIVNPWCKNQT-UHFFFAOYSA-N

>  <original ID>  (335) 
OMXYIVNPWCKNQT-UHFFFAOYSA-N

>  <generation_date>  (335) 
None

>  <alias>  (335) 
None

>  <tags>  (335) 
[]

>  <ref_mols>  (335) 
c0692a,c1116a

>  <ref_url>  (335) 
None

>  <submitter_name>  (335) 
None

>  <exports>  (335) 
['/opt/xchem-fragalysis-2/maxwin/CHIKV_HIPPO/hippo_prod/CHIKV_prod11_recipes/Recipe_1GERJCJ_poses.sdf']

>  <original SMILES>  (335) 
CC(C)(C)OC(=O)C(=O)Nc1cc(F)ccc1N

>  <method>  (335) 
None

>  <submitter_email>  (335) 
None

>  <HIPPO ID>  (335) 
112736

$$$$
VTWXIJSNSCBZPV-GFCCVEGCSA-N
     RDKit          3D

 18 19  0  0  0  0  0  0  0  0999 V2000
   20.4805   13.4696   12.5137 C   0  0  0  0  0  0  0  0  0  0  0  0
   20.0188   12.7023   11.2580 C   0  0  2  0  0  0  0  0  0  0  0  0
   18.5586   12.2042   11.5765 C   0  0  0  0  0  0  0  0  0  0  0  0
   17.9461   12.6915   12.5309 O   0  0  0  0  0  0  0  0  0  0  0  0
   18.0425   11.1923   10.7943 N   0  0  0  0  0  0  0  0  0  0  0  0
   16.6970   10.7383   10.7198 C   0  0  0  0  0  0  0  0  0  0  0  0
   16.4549    9.7685    9.7343 C   0  0  0  0  0  0  0  0  0  0  0  0
   15.1935    9.4064    9.2992 C   0  0  0  0  0  0  0  0  0  0  0  0
   14.1535   10.1691    9.7333 C   0  0  0  0  0  0  0  0  0  0  0  0
   14.3805   11.0826   10.7572 C   0  0  0  0  0  0  0  0  0  0  0  0
   13.4003   11.9862   11.0760 O   0  0  0  0  0  0  0  0  0  0  0  0
   15.6022   11.2437   11.4006 C   0  0  0  0  0  0  0  0  0  0  0  0
   15.6007   12.1162   12.4885 N   0  0  0  0  0  0  0  0  0  0  0  0
   20.9808   11.5318   10.9449 C   0  0  0  0  0  0  0  0  0  0  0  0
   22.3632   11.9857   10.7642 N   0  0  0  0  0  0  0  0  0  0  0  0
   22.4420   13.0428    9.7482 C   0  0  0  0  0  0  0  0  0  0  0  0
   21.3365   14.1194    9.8395 C   0  0  0  0  0  0  0  0  0  0  0  0
   20.0204   13.6031   10.1311 O   0  0  0  0  0  0  0  0  0  0  0  0
  2  1  1  1
  2  3  1  0
  3  4  2  0
  3  5  1  0
  5  6  1  0
  6  7  2  0
  7  8  1  0
  8  9  2  0
  9 10  1  0
 10 11  1  0
 10 12  2  0
 12 13  1  0
  2 14  1  0
 14 15  1  0
 15 16  1  0
 16 17  1  0
 17 18  1  0
 18  2  1  0
 12  6  1  0
M  END
>  <ref_pdb>  (336) 
c0270a

>  <inchikey>  (336) 
VTWXIJSNSCBZPV-GFCCVEGCSA-N

>  <original ID>  (336) 
VTWXIJSNSCBZPV-GFCCVEGCSA-N

>  <generation_date>  (336) 
None

>  <alias>  (336) 
None

>  <tags>  (336) 
[]

>  <ref_mols>  (336) 
c0692a,c1116a

>  <ref_url>  (336) 
None

>  <submitter_name>  (336) 
None

>  <exports>  (336) 
nan

>  <original SMILES>  (336) 
C[C@]1(C(=O)Nc2cccc(O)c2N)CNCCO1

>  <method>  (336) 
None

>  <submitter_email>  (336) 
None

>  <HIPPO ID>  (336) 
112922

$$$$
VTWXIJSNSCBZPV-LBPRGKRZSA-N
     RDKit          3D

 18 19  0  0  0  0  0  0  0  0999 V2000
   20.2224   13.9190   10.5377 C   0  0  0  0  0  0  0  0  0  0  0  0
   19.9700   12.5787   11.2329 C   0  0  1  0  0  0  0  0  0  0  0  0
   18.4173   12.2848   11.2832 C   0  0  0  0  0  0  0  0  0  0  0  0
   17.6506   13.0587   11.8716 O   0  0  0  0  0  0  0  0  0  0  0  0
   17.9493   11.1492   10.6404 N   0  0  0  0  0  0  0  0  0  0  0  0
   16.7229   10.4736   10.8739 C   0  0  0  0  0  0  0  0  0  0  0  0
   16.2979    9.5838    9.8674 C   0  0  0  0  0  0  0  0  0  0  0  0
   15.2642    8.6776   10.0754 C   0  0  0  0  0  0  0  0  0  0  0  0
   14.6401    8.6550   11.3038 C   0  0  0  0  0  0  0  0  0  0  0  0
   14.9585    9.6320   12.2419 C   0  0  0  0  0  0  0  0  0  0  0  0
   14.1760    9.7678   13.3529 O   0  0  0  0  0  0  0  0  0  0  0  0
   16.0031   10.5411   12.0742 C   0  0  0  0  0  0  0  0  0  0  0  0
   16.4467   11.2492   13.2098 N   0  0  0  0  0  0  0  0  0  0  0  0
   20.7700   11.3859   10.6681 C   0  0  0  0  0  0  0  0  0  0  0  0
   22.2160   11.5528   10.5972 N   0  0  0  0  0  0  0  0  0  0  0  0
   22.7162   12.4355   11.6466 C   0  0  0  0  0  0  0  0  0  0  0  0
   21.7794   12.4972   12.8609 C   0  0  0  0  0  0  0  0  0  0  0  0
   20.4041   12.8293   12.5885 O   0  0  0  0  0  0  0  0  0  0  0  0
  2  1  1  6
  2  3  1  0
  3  4  2  0
  3  5  1  0
  5  6  1  0
  6  7  2  0
  7  8  1  0
  8  9  2  0
  9 10  1  0
 10 11  1  0
 10 12  2  0
 12 13  1  0
  2 14  1  0
 14 15  1  0
 15 16  1  0
 16 17  1  0
 17 18  1  0
 18  2  1  0
 12  6  1  0
M  END
>  <ref_pdb>  (337) 
c0270a

>  <inchikey>  (337) 
VTWXIJSNSCBZPV-LBPRGKRZSA-N

>  <original ID>  (337) 
VTWXIJSNSCBZPV-LBPRGKRZSA-N

>  <generation_date>  (337) 
None

>  <alias>  (337) 
None

>  <tags>  (337) 
[]

>  <ref_mols>  (337) 
c0692a,c1116a

>  <ref_url>  (337) 
None

>  <submitter_name>  (337) 
None

>  <exports>  (337) 
nan

>  <original SMILES>  (337) 
C[C@@]1(C(=O)Nc2cccc(O)c2N)CNCCO1

>  <method>  (337) 
None

>  <submitter_email>  (337) 
None

>  <HIPPO ID>  (337) 
112923

$$$$
UCJKNRQJQMEXSC-LBPRGKRZSA-N
     RDKit          3D

 18 19  0  0  0  0  0  0  0  0999 V2000
   21.9297   11.4112   10.8961 N   0  0  0  0  0  0  0  0  0  0  0  0
   20.4811   11.3230   10.7751 C   0  0  0  0  0  0  0  0  0  0  0  0
   19.6941   12.5561   11.2390 C   0  0  2  0  0  0  0  0  0  0  0  0
   18.1400   12.3019   11.2369 C   0  0  0  0  0  0  0  0  0  0  0  0
   17.3842   13.0723   11.8396 O   0  0  0  0  0  0  0  0  0  0  0  0
   17.6572   11.1817   10.5698 N   0  0  0  0  0  0  0  0  0  0  0  0
   16.4998   10.4469   10.9328 C   0  0  0  0  0  0  0  0  0  0  0  0
   15.9656   10.5737   12.1996 C   0  0  0  0  0  0  0  0  0  0  0  0
   15.0618    9.6304   12.6522 C   0  0  0  0  0  0  0  0  0  0  0  0
   14.3667    9.9130   14.3581 Br  0  0  0  0  0  0  0  0  0  0  0  0
   14.6877    8.5388   11.8790 C   0  0  0  0  0  0  0  0  0  0  0  0
   15.1026    8.4863   10.5620 C   0  0  0  0  0  0  0  0  0  0  0  0
   16.0012    9.4412   10.0818 C   0  0  0  0  0  0  0  0  0  0  0  0
   16.2269    9.4533    8.7198 N   0  0  0  0  0  0  0  0  0  0  0  0
   20.1600   13.8553   10.5820 C   0  0  0  0  0  0  0  0  0  0  0  0
   20.8245   14.6672   11.6682 C   0  0  0  0  0  0  0  0  0  0  0  0
   20.1823   14.1358   12.9127 C   0  0  0  0  0  0  0  0  0  0  0  0
   20.0186   12.7461   12.6442 O   0  0  0  0  0  0  0  0  0  0  0  0
  1  2  1  0
  3  2  1  6
  3  4  1  0
  4  5  2  0
  4  6  1  0
  6  7  1  0
  7  8  2  0
  8  9  1  0
  9 10  1  0
  9 11  2  0
 11 12  1  0
 12 13  2  0
 13 14  1  0
  3 15  1  0
 15 16  1  0
 16 17  1  0
 17 18  1  0
 18  3  1  0
 13  7  1  0
M  END
>  <ref_pdb>  (338) 
c0270a

>  <inchikey>  (338) 
UCJKNRQJQMEXSC-LBPRGKRZSA-N

>  <original ID>  (338) 
UCJKNRQJQMEXSC-LBPRGKRZSA-N

>  <generation_date>  (338) 
None

>  <alias>  (338) 
None

>  <tags>  (338) 
[]

>  <ref_mols>  (338) 
c0692a,c1116a

>  <ref_url>  (338) 
None

>  <submitter_name>  (338) 
None

>  <exports>  (338) 
nan

>  <original SMILES>  (338) 
NC[C@]1(C(=O)Nc2cc(Br)ccc2N)CCCO1

>  <method>  (338) 
None

>  <submitter_email>  (338) 
None

>  <HIPPO ID>  (338) 
112959

$$$$
ARBRSTMDRKEVRO-LBPRGKRZSA-N
     RDKit          3D

 18 19  0  0  0  0  0  0  0  0999 V2000
   21.9133   11.3682   10.8198 N   0  0  0  0  0  0  0  0  0  0  0  0
   20.4603   11.3087   10.7506 C   0  0  0  0  0  0  0  0  0  0  0  0
   19.7076   12.5542   11.2370 C   0  0  2  0  0  0  0  0  0  0  0  0
   18.1482   12.3337   11.2714 C   0  0  0  0  0  0  0  0  0  0  0  0
   17.4228   13.1329   11.8736 O   0  0  0  0  0  0  0  0  0  0  0  0
   17.6269   11.2159   10.6332 N   0  0  0  0  0  0  0  0  0  0  0  0
   16.4297   10.5431   10.9855 C   0  0  0  0  0  0  0  0  0  0  0  0
   15.7917   10.7689   12.1902 C   0  0  0  0  0  0  0  0  0  0  0  0
   14.8655    9.8463   12.6290 C   0  0  0  0  0  0  0  0  0  0  0  0
   14.1809   10.1311   13.7346 F   0  0  0  0  0  0  0  0  0  0  0  0
   14.6210    8.6649   11.9422 C   0  0  0  0  0  0  0  0  0  0  0  0
   15.1115    8.5313   10.6614 C   0  0  0  0  0  0  0  0  0  0  0  0
   15.9490    9.5187   10.1463 C   0  0  0  0  0  0  0  0  0  0  0  0
   16.4449    9.3249    8.8715 N   0  0  0  0  0  0  0  0  0  0  0  0
   20.1825   13.8500   10.5766 C   0  0  0  0  0  0  0  0  0  0  0  0
   21.0025   14.5727   11.6191 C   0  0  0  0  0  0  0  0  0  0  0  0
   20.3727   14.0948   12.8931 C   0  0  0  0  0  0  0  0  0  0  0  0
   20.0695   12.7267   12.6361 O   0  0  0  0  0  0  0  0  0  0  0  0
  1  2  1  0
  3  2  1  6
  3  4  1  0
  4  5  2  0
  4  6  1  0
  6  7  1  0
  7  8  2  0
  8  9  1  0
  9 10  1  0
  9 11  2  0
 11 12  1  0
 12 13  2  0
 13 14  1  0
  3 15  1  0
 15 16  1  0
 16 17  1  0
 17 18  1  0
 18  3  1  0
 13  7  1  0
M  END
>  <ref_pdb>  (339) 
c0270a

>  <inchikey>  (339) 
ARBRSTMDRKEVRO-LBPRGKRZSA-N

>  <original ID>  (339) 
ARBRSTMDRKEVRO-LBPRGKRZSA-N

>  <generation_date>  (339) 
None

>  <alias>  (339) 
None

>  <tags>  (339) 
[]

>  <ref_mols>  (339) 
c0692a,c1116a

>  <ref_url>  (339) 
None

>  <submitter_name>  (339) 
None

>  <exports>  (339) 
['/opt/xchem-fragalysis-2/maxwin/CHIKV_HIPPO/hippo_prod/CHIKV_prod11_recipes/Recipe_1GERJCJ_poses.sdf']

>  <original SMILES>  (339) 
NC[C@]1(C(=O)Nc2cc(F)ccc2N)CCCO1

>  <method>  (339) 
None

>  <submitter_email>  (339) 
None

>  <HIPPO ID>  (339) 
112966

$$$$
ARBRSTMDRKEVRO-GFCCVEGCSA-N
     RDKit          3D

 18 19  0  0  0  0  0  0  0  0999 V2000
   21.8980   11.6247   10.4911 N   0  0  0  0  0  0  0  0  0  0  0  0
   20.4783   11.3631   10.7215 C   0  0  0  0  0  0  0  0  0  0  0  0
   19.6431   12.5889   11.1781 C   0  0  1  0  0  0  0  0  0  0  0  0
   18.1265   12.1929   11.4052 C   0  0  0  0  0  0  0  0  0  0  0  0
   17.4449   12.7927   12.2420 O   0  0  0  0  0  0  0  0  0  0  0  0
   17.5862   11.1849   10.6132 N   0  0  0  0  0  0  0  0  0  0  0  0
   16.4290   10.4176   10.9138 C   0  0  0  0  0  0  0  0  0  0  0  0
   15.8269   10.4651   12.1583 C   0  0  0  0  0  0  0  0  0  0  0  0
   14.8873    9.5114   12.4890 C   0  0  0  0  0  0  0  0  0  0  0  0
   14.2299    9.6733   13.6355 F   0  0  0  0  0  0  0  0  0  0  0  0
   14.5865    8.4475   11.6503 C   0  0  0  0  0  0  0  0  0  0  0  0
   15.0695    8.4730   10.3590 C   0  0  0  0  0  0  0  0  0  0  0  0
   15.9210    9.5054    9.9645 C   0  0  0  0  0  0  0  0  0  0  0  0
   16.3415    9.4787    8.6414 N   0  0  0  0  0  0  0  0  0  0  0  0
   20.2306   13.1995   12.4677 C   0  0  0  0  0  0  0  0  0  0  0  0
   21.0955   14.3392   12.0046 C   0  0  0  0  0  0  0  0  0  0  0  0
   20.3673   14.7948   10.7751 C   0  0  0  0  0  0  0  0  0  0  0  0
   19.7654   13.6321   10.1847 O   0  0  0  0  0  0  0  0  0  0  0  0
  1  2  1  0
  3  2  1  6
  3  4  1  0
  4  5  2  0
  4  6  1  0
  6  7  1  0
  7  8  2  0
  8  9  1  0
  9 10  1  0
  9 11  2  0
 11 12  1  0
 12 13  2  0
 13 14  1  0
  3 15  1  0
 15 16  1  0
 16 17  1  0
 17 18  1  0
 18  3  1  0
 13  7  1  0
M  END
>  <ref_pdb>  (340) 
c0270a

>  <inchikey>  (340) 
ARBRSTMDRKEVRO-GFCCVEGCSA-N

>  <original ID>  (340) 
ARBRSTMDRKEVRO-GFCCVEGCSA-N

>  <generation_date>  (340) 
None

>  <alias>  (340) 
None

>  <tags>  (340) 
[]

>  <ref_mols>  (340) 
c0692a,c1116a

>  <ref_url>  (340) 
None

>  <submitter_name>  (340) 
None

>  <exports>  (340) 
['/opt/xchem-fragalysis-2/maxwin/CHIKV_HIPPO/hippo_prod/CHIKV_prod11_recipes/Recipe_1GERJCJ_poses.sdf']

>  <original SMILES>  (340) 
NC[C@@]1(C(=O)Nc2cc(F)ccc2N)CCCO1

>  <method>  (340) 
None

>  <submitter_email>  (340) 
None

>  <HIPPO ID>  (340) 
112967

$$$$
RLKWETSAWOSHQL-LBPRGKRZSA-N
     RDKit          3D

 18 19  0  0  0  0  0  0  0  0999 V2000
   22.1210   11.6310   10.5711 N   0  0  0  0  0  0  0  0  0  0  0  0
   20.6954   11.3393   10.7056 C   0  0  0  0  0  0  0  0  0  0  0  0
   19.8651   12.5328   11.2154 C   0  0  2  0  0  0  0  0  0  0  0  0
   18.3181   12.2673   11.2298 C   0  0  0  0  0  0  0  0  0  0  0  0
   17.5571   13.0552   11.8057 O   0  0  0  0  0  0  0  0  0  0  0  0
   17.8499   11.1323   10.5958 N   0  0  0  0  0  0  0  0  0  0  0  0
   16.6280   10.4491   10.8180 C   0  0  0  0  0  0  0  0  0  0  0  0
   16.2314    9.5426    9.8141 C   0  0  0  0  0  0  0  0  0  0  0  0
   15.2044    8.6230   10.0099 C   0  0  0  0  0  0  0  0  0  0  0  0
   14.6014    8.5563   11.2461 C   0  0  0  0  0  0  0  0  0  0  0  0
   14.9170    9.5215   12.1922 C   0  0  0  0  0  0  0  0  0  0  0  0
   14.3073    9.4989   13.4136 O   0  0  0  0  0  0  0  0  0  0  0  0
   15.8674   10.5244   11.9858 C   0  0  0  0  0  0  0  0  0  0  0  0
   16.1158   11.3812   13.0900 N   0  0  0  0  0  0  0  0  0  0  0  0
   20.2441   13.8744   10.5787 C   0  0  0  0  0  0  0  0  0  0  0  0
   21.0921   14.5854   11.6056 C   0  0  0  0  0  0  0  0  0  0  0  0
   20.5280   14.0545   12.8911 C   0  0  0  0  0  0  0  0  0  0  0  0
   20.2166   12.6907   12.6180 O   0  0  0  0  0  0  0  0  0  0  0  0
  1  2  1  0
  3  2  1  6
  3  4  1  0
  4  5  2  0
  4  6  1  0
  6  7  1  0
  7  8  2  0
  8  9  1  0
  9 10  2  0
 10 11  1  0
 11 12  1  0
 11 13  2  0
 13 14  1  0
  3 15  1  0
 15 16  1  0
 16 17  1  0
 17 18  1  0
 18  3  1  0
 13  7  1  0
M  END
>  <ref_pdb>  (341) 
c0270a

>  <inchikey>  (341) 
RLKWETSAWOSHQL-LBPRGKRZSA-N

>  <original ID>  (341) 
RLKWETSAWOSHQL-LBPRGKRZSA-N

>  <generation_date>  (341) 
None

>  <alias>  (341) 
None

>  <tags>  (341) 
[]

>  <ref_mols>  (341) 
c0692a,c1116a

>  <ref_url>  (341) 
None

>  <submitter_name>  (341) 
None

>  <exports>  (341) 
nan

>  <original SMILES>  (341) 
NC[C@]1(C(=O)Nc2cccc(O)c2N)CCCO1

>  <method>  (341) 
None

>  <submitter_email>  (341) 
None

>  <HIPPO ID>  (341) 
112968

$$$$
SNLPJQHLNQBJBW-QMMMGPOBSA-N
     RDKit          3D

 18 18  0  0  0  0  0  0  0  0999 V2000
   21.5525   11.3847   10.3203 C   0  0  0  0  0  0  0  0  0  0  0  0
   20.1370   11.2676   10.4486 O   0  0  0  0  0  0  0  0  0  0  0  0
   19.5102   12.4073   11.0407 C   0  0  2  0  0  0  0  0  0  0  0  0
   20.1429   12.9233   12.3321 C   0  0  0  0  0  0  0  0  0  0  0  0
   21.1408   12.4717   12.8696 O   0  0  0  0  0  0  0  0  0  0  0  0
   19.5642   14.0154   12.8626 O   0  0  0  0  0  0  0  0  0  0  0  0
   18.0159   12.0915   11.2245 C   0  0  0  0  0  0  0  0  0  0  0  0
   17.2654   12.8265   11.8712 O   0  0  0  0  0  0  0  0  0  0  0  0
   17.5701   10.9601   10.5653 N   0  0  0  0  0  0  0  0  0  0  0  0
   16.4015   10.2129   10.8339 C   0  0  0  0  0  0  0  0  0  0  0  0
   15.9500    9.3248    9.8383 C   0  0  0  0  0  0  0  0  0  0  0  0
   16.4743    9.3589    8.6128 F   0  0  0  0  0  0  0  0  0  0  0  0
   14.9844    8.3577   10.0780 C   0  0  0  0  0  0  0  0  0  0  0  0
   14.4672    8.2449   11.3482 C   0  0  0  0  0  0  0  0  0  0  0  0
   14.8165    9.2021   12.2964 C   0  0  0  0  0  0  0  0  0  0  0  0
   14.1824    9.2332   13.4716 F   0  0  0  0  0  0  0  0  0  0  0  0
   15.7494   10.2125   12.0701 C   0  0  0  0  0  0  0  0  0  0  0  0
   16.1504   10.9711   13.1975 N   0  0  0  0  0  0  0  0  0  0  0  0
  1  2  1  0
  3  2  1  1
  3  4  1  0
  4  5  2  0
  4  6  1  0
  3  7  1  0
  7  8  2  0
  7  9  1  0
  9 10  1  0
 10 11  2  0
 11 12  1  0
 11 13  1  0
 13 14  2  0
 14 15  1  0
 15 16  1  0
 15 17  2  0
 17 18  1  0
 17 10  1  0
M  END
>  <ref_pdb>  (342) 
c0270a

>  <inchikey>  (342) 
SNLPJQHLNQBJBW-QMMMGPOBSA-N

>  <original ID>  (342) 
SNLPJQHLNQBJBW-QMMMGPOBSA-N

>  <generation_date>  (342) 
None

>  <alias>  (342) 
None

>  <tags>  (342) 
[]

>  <ref_mols>  (342) 
c0692a,c1116a

>  <ref_url>  (342) 
None

>  <submitter_name>  (342) 
None

>  <exports>  (342) 
nan

>  <original SMILES>  (342) 
CO[C@H](C(=O)O)C(=O)Nc1c(F)ccc(F)c1N

>  <method>  (342) 
None

>  <submitter_email>  (342) 
None

>  <HIPPO ID>  (342) 
113077

$$$$
SNLPJQHLNQBJBW-MRVPVSSYSA-N
     RDKit          3D

 18 18  0  0  0  0  0  0  0  0999 V2000
   21.6213   11.3811   10.4878 C   0  0  0  0  0  0  0  0  0  0  0  0
   20.2062   11.4062   10.3199 O   0  0  0  0  0  0  0  0  0  0  0  0
   19.5921   12.3807   11.1509 C   0  0  1  0  0  0  0  0  0  0  0  0
   19.8940   13.8257   10.7692 C   0  0  0  0  0  0  0  0  0  0  0  0
   19.9573   14.3129    9.6508 O   0  0  0  0  0  0  0  0  0  0  0  0
   20.1448   14.6147   11.8296 O   0  0  0  0  0  0  0  0  0  0  0  0
   18.0797   12.1334   11.2343 C   0  0  0  0  0  0  0  0  0  0  0  0
   17.3444   12.8971   11.8664 O   0  0  0  0  0  0  0  0  0  0  0  0
   17.6303   10.9993   10.5812 N   0  0  0  0  0  0  0  0  0  0  0  0
   16.4458   10.2681   10.8350 C   0  0  0  0  0  0  0  0  0  0  0  0
   15.9913    9.3763    9.8421 C   0  0  0  0  0  0  0  0  0  0  0  0
   16.5161    9.3944    8.6175 F   0  0  0  0  0  0  0  0  0  0  0  0
   15.0191    8.4155   10.0816 C   0  0  0  0  0  0  0  0  0  0  0  0
   14.4924    8.3149   11.3480 C   0  0  0  0  0  0  0  0  0  0  0  0
   14.8373    9.2794   12.2903 C   0  0  0  0  0  0  0  0  0  0  0  0
   14.1913    9.3236   13.4584 F   0  0  0  0  0  0  0  0  0  0  0  0
   15.7829   10.2797   12.0655 C   0  0  0  0  0  0  0  0  0  0  0  0
   16.1857   11.0395   13.1918 N   0  0  0  0  0  0  0  0  0  0  0  0
  1  2  1  0
  3  2  1  6
  3  4  1  0
  4  5  2  0
  4  6  1  0
  3  7  1  0
  7  8  2  0
  7  9  1  0
  9 10  1  0
 10 11  2  0
 11 12  1  0
 11 13  1  0
 13 14  2  0
 14 15  1  0
 15 16  1  0
 15 17  2  0
 17 18  1  0
 17 10  1  0
M  END
>  <ref_pdb>  (343) 
c0270a

>  <inchikey>  (343) 
SNLPJQHLNQBJBW-MRVPVSSYSA-N

>  <original ID>  (343) 
SNLPJQHLNQBJBW-MRVPVSSYSA-N

>  <generation_date>  (343) 
None

>  <alias>  (343) 
None

>  <tags>  (343) 
[]

>  <ref_mols>  (343) 
c0692a,c1116a

>  <ref_url>  (343) 
None

>  <submitter_name>  (343) 
None

>  <exports>  (343) 
nan

>  <original SMILES>  (343) 
CO[C@@H](C(=O)O)C(=O)Nc1c(F)ccc(F)c1N

>  <method>  (343) 
None

>  <submitter_email>  (343) 
None

>  <HIPPO ID>  (343) 
113078

$$$$
OLJRQEZFHUBOJD-UHFFFAOYSA-N
     RDKit          3D

 18 18  0  0  0  0  0  0  0  0999 V2000
   14.3577    9.0529   13.8663 C   0  0  0  0  0  0  0  0  0  0  0  0
   14.8536    9.0488   12.4624 C   0  0  0  0  0  0  0  0  0  0  0  0
   15.7249   10.0957   12.1536 C   0  0  0  0  0  0  0  0  0  0  0  0
   16.2643   10.2146   10.8859 C   0  0  0  0  0  0  0  0  0  0  0  0
   17.3643   11.0564   10.6397 N   0  0  0  0  0  0  0  0  0  0  0  0
   17.8326   12.0514   11.4751 C   0  0  0  0  0  0  0  0  0  0  0  0
   17.1807   12.5986   12.3629 O   0  0  0  0  0  0  0  0  0  0  0  0
   19.2720   12.4799   11.2044 C   0  0  0  0  0  0  0  0  0  0  0  0
   20.0310   11.4143   10.6550 O   0  0  0  0  0  0  0  0  0  0  0  0
   21.3832   11.7794   10.3838 C   0  0  0  0  0  0  0  0  0  0  0  0
   22.3472   11.1916   11.3898 C   0  0  0  0  0  0  0  0  0  0  0  0
   22.5429   11.9783   12.6657 C   0  0  0  0  0  0  0  0  0  0  0  0
   23.7852   13.4465   12.3402 Br  0  0  0  0  0  0  0  0  0  0  0  0
   15.7855    9.3824    9.8674 C   0  0  0  0  0  0  0  0  0  0  0  0
   16.2616    9.4564    8.5648 N   0  0  0  0  0  0  0  0  0  0  0  0
   14.9507    8.3137   10.1736 C   0  0  0  0  0  0  0  0  0  0  0  0
   14.5157    8.1168   11.4723 C   0  0  0  0  0  0  0  0  0  0  0  0
   13.5369    6.7213   11.7530 Cl  0  0  0  0  0  0  0  0  0  0  0  0
  1  2  1  0
  2  3  2  0
  3  4  1  0
  4  5  1  0
  5  6  1  0
  6  7  2  0
  6  8  1  0
  8  9  1  0
  9 10  1  0
 10 11  1  0
 11 12  1  0
 12 13  1  0
  4 14  2  0
 14 15  1  0
 14 16  1  0
 16 17  2  0
 17 18  1  0
 17  2  1  0
M  END
>  <ref_pdb>  (344) 
c0270a

>  <inchikey>  (344) 
OLJRQEZFHUBOJD-UHFFFAOYSA-N

>  <original ID>  (344) 
OLJRQEZFHUBOJD-UHFFFAOYSA-N

>  <generation_date>  (344) 
None

>  <alias>  (344) 
None

>  <tags>  (344) 
[]

>  <ref_mols>  (344) 
c0692a,c1116a

>  <ref_url>  (344) 
None

>  <submitter_name>  (344) 
None

>  <exports>  (344) 
nan

>  <original SMILES>  (344) 
Cc1cc(NC(=O)COCCCBr)c(N)cc1Cl

>  <method>  (344) 
None

>  <submitter_email>  (344) 
None

>  <HIPPO ID>  (344) 
113174

$$$$
FGFNNUDIQTWIFI-UHFFFAOYSA-N
     RDKit          3D

 18 18  0  0  0  0  0  0  0  0999 V2000
   14.4178    9.5964   14.0794 C   0  0  0  0  0  0  0  0  0  0  0  0
   14.9458    9.4384   12.7009 C   0  0  0  0  0  0  0  0  0  0  0  0
   14.5271    8.4395   11.8293 C   0  0  0  0  0  0  0  0  0  0  0  0
   14.8036    8.5432   10.4659 C   0  0  0  0  0  0  0  0  0  0  0  0
   14.0563    7.6466    9.5270 C   0  0  0  0  0  0  0  0  0  0  0  0
   15.7127    9.5107   10.0226 C   0  0  0  0  0  0  0  0  0  0  0  0
   16.1149    9.5080    8.6852 N   0  0  0  0  0  0  0  0  0  0  0  0
   16.3198   10.3584   10.9624 C   0  0  0  0  0  0  0  0  0  0  0  0
   17.4540   11.1098   10.6177 N   0  0  0  0  0  0  0  0  0  0  0  0
   17.9286   12.1869   11.3363 C   0  0  0  0  0  0  0  0  0  0  0  0
   17.2593   12.8761   12.1061 O   0  0  0  0  0  0  0  0  0  0  0  0
   19.3836   12.5342   11.0821 C   0  0  0  0  0  0  0  0  0  0  0  0
   20.1449   11.4030   10.6973 O   0  0  0  0  0  0  0  0  0  0  0  0
   21.5111   11.7161   10.4337 C   0  0  0  0  0  0  0  0  0  0  0  0
   22.4080   11.5096   11.6416 C   0  0  0  0  0  0  0  0  0  0  0  0
   22.2293   12.5429   12.7334 C   0  0  0  0  0  0  0  0  0  0  0  0
   23.5977   12.2716   14.0885 Br  0  0  0  0  0  0  0  0  0  0  0  0
   15.8530   10.3849   12.2657 C   0  0  0  0  0  0  0  0  0  0  0  0
  1  2  1  0
  2  3  2  0
  3  4  1  0
  4  5  1  0
  4  6  2  0
  6  7  1  0
  6  8  1  0
  8  9  1  0
  9 10  1  0
 10 11  2  0
 10 12  1  0
 12 13  1  0
 13 14  1  0
 14 15  1  0
 15 16  1  0
 16 17  1  0
  8 18  2  0
 18  2  1  0
M  END
>  <ref_pdb>  (345) 
c0270a

>  <inchikey>  (345) 
FGFNNUDIQTWIFI-UHFFFAOYSA-N

>  <original ID>  (345) 
FGFNNUDIQTWIFI-UHFFFAOYSA-N

>  <generation_date>  (345) 
None

>  <alias>  (345) 
None

>  <tags>  (345) 
[]

>  <ref_mols>  (345) 
c0692a,c1116a

>  <ref_url>  (345) 
None

>  <submitter_name>  (345) 
None

>  <exports>  (345) 
nan

>  <original SMILES>  (345) 
Cc1cc(C)c(N)c(NC(=O)COCCCBr)c1

>  <method>  (345) 
None

>  <submitter_email>  (345) 
None

>  <HIPPO ID>  (345) 
113182

$$$$
IJDIHSJCMTTXQY-UHFFFAOYSA-N
     RDKit          3D

 18 18  0  0  0  0  0  0  0  0999 V2000
   13.5689    6.8946   11.0968 C   0  0  0  0  0  0  0  0  0  0  0  0
   14.4322    8.1113   10.9776 C   0  0  0  0  0  0  0  0  0  0  0  0
   14.9575    8.4560    9.7465 C   0  0  0  0  0  0  0  0  0  0  0  0
   15.9239    9.4490    9.6571 C   0  0  0  0  0  0  0  0  0  0  0  0
   16.3042   10.1936   10.7793 C   0  0  0  0  0  0  0  0  0  0  0  0
   17.4307   11.0124   10.6275 N   0  0  0  0  0  0  0  0  0  0  0  0
   17.7895   12.0869   11.3992 C   0  0  0  0  0  0  0  0  0  0  0  0
   17.0451   12.7220   12.1465 O   0  0  0  0  0  0  0  0  0  0  0  0
   19.2368   12.5012   11.2348 C   0  0  0  0  0  0  0  0  0  0  0  0
   19.9865   11.6302   10.4085 O   0  0  0  0  0  0  0  0  0  0  0  0
   21.3747   11.5743   10.7267 C   0  0  0  0  0  0  0  0  0  0  0  0
   22.1921   12.7851   10.2712 C   0  0  0  0  0  0  0  0  0  0  0  0
   21.9325   14.0640   11.0468 C   0  0  0  0  0  0  0  0  0  0  0  0
   21.0210   15.4091    9.9623 Br  0  0  0  0  0  0  0  0  0  0  0  0
   15.6386   10.0035   11.9914 C   0  0  0  0  0  0  0  0  0  0  0  0
   15.9858   10.6472   13.2045 N   0  0  0  0  0  0  0  0  0  0  0  0
   14.7732    8.9125   12.0688 C   0  0  0  0  0  0  0  0  0  0  0  0
   14.2023    8.7083   13.2582 F   0  0  0  0  0  0  0  0  0  0  0  0
  1  2  1  0
  2  3  2  0
  3  4  1  0
  4  5  2  0
  5  6  1  0
  6  7  1  0
  7  8  2  0
  7  9  1  0
  9 10  1  0
 10 11  1  0
 11 12  1  0
 12 13  1  0
 13 14  1  0
  5 15  1  0
 15 16  1  0
 15 17  2  0
 17 18  1  0
 17  2  1  0
M  END
>  <ref_pdb>  (346) 
c0270a

>  <inchikey>  (346) 
IJDIHSJCMTTXQY-UHFFFAOYSA-N

>  <original ID>  (346) 
IJDIHSJCMTTXQY-UHFFFAOYSA-N

>  <generation_date>  (346) 
None

>  <alias>  (346) 
None

>  <tags>  (346) 
[]

>  <ref_mols>  (346) 
c0692a,c1116a

>  <ref_url>  (346) 
None

>  <submitter_name>  (346) 
None

>  <exports>  (346) 
nan

>  <original SMILES>  (346) 
Cc1ccc(NC(=O)COCCCBr)c(N)c1F

>  <method>  (346) 
None

>  <submitter_email>  (346) 
None

>  <HIPPO ID>  (346) 
113184

$$$$
SVXLUKYVXXRZGS-UHFFFAOYSA-N
     RDKit          3D

 18 18  0  0  0  0  0  0  0  0999 V2000
   15.7457    9.0008    8.5626 C   0  0  0  0  0  0  0  0  0  0  0  0
   15.6407   10.2256    9.2724 N   0  0  0  0  0  0  0  0  0  0  0  0
   15.6104    9.9382   10.6391 C   0  0  0  0  0  0  0  0  0  0  0  0
   14.7983    8.9013   11.1284 C   0  0  0  0  0  0  0  0  0  0  0  0
   14.6411    8.7216   12.4814 C   0  0  0  0  0  0  0  0  0  0  0  0
   15.1267    9.7081   13.3127 C   0  0  0  0  0  0  0  0  0  0  0  0
   14.6276    9.7452   15.0947 Br  0  0  0  0  0  0  0  0  0  0  0  0
   15.9652   10.7112   12.8627 C   0  0  0  0  0  0  0  0  0  0  0  0
   16.2942   10.7584   11.5252 C   0  0  0  0  0  0  0  0  0  0  0  0
   17.3985   11.4864   11.0572 N   0  0  0  0  0  0  0  0  0  0  0  0
   18.0037   12.5008   11.7483 C   0  0  0  0  0  0  0  0  0  0  0  0
   17.4560   13.1779   12.6151 O   0  0  0  0  0  0  0  0  0  0  0  0
   19.4534   12.7492   11.3689 C   0  0  0  0  0  0  0  0  0  0  0  0
   19.9963   11.7787   10.4848 O   0  0  0  0  0  0  0  0  0  0  0  0
   21.4345   11.7475   10.5001 C   0  0  0  0  0  0  0  0  0  0  0  0
   22.0643   13.1336   10.3127 C   0  0  0  0  0  0  0  0  0  0  0  0
   23.5682   13.0737   10.1356 C   0  0  0  0  0  0  0  0  0  0  0  0
   24.0537   13.0449    8.2646 Br  0  0  0  0  0  0  0  0  0  0  0  0
  1  2  1  0
  2  3  1  0
  3  4  2  0
  4  5  1  0
  5  6  2  0
  6  7  1  0
  6  8  1  0
  8  9  2  0
  9 10  1  0
 10 11  1  0
 11 12  2  0
 11 13  1  0
 13 14  1  0
 14 15  1  0
 15 16  1  0
 16 17  1  0
 17 18  1  0
  9  3  1  0
M  END
>  <ref_pdb>  (347) 
c0270a

>  <inchikey>  (347) 
SVXLUKYVXXRZGS-UHFFFAOYSA-N

>  <original ID>  (347) 
SVXLUKYVXXRZGS-UHFFFAOYSA-N

>  <generation_date>  (347) 
None

>  <alias>  (347) 
None

>  <tags>  (347) 
[]

>  <ref_mols>  (347) 
c0692a,c1116a

>  <ref_url>  (347) 
None

>  <submitter_name>  (347) 
None

>  <exports>  (347) 
['/opt/xchem-fragalysis-2/maxwin/CHIKV_HIPPO/hippo_prod/CHIKV_prod11_recipes/Recipe_1GERJCJ_poses.sdf']

>  <original SMILES>  (347) 
CNc1ccc(Br)cc1NC(=O)COCCCBr

>  <method>  (347) 
None

>  <submitter_email>  (347) 
None

>  <HIPPO ID>  (347) 
113200

$$$$
CXJZFCVVTVWFQD-UHFFFAOYSA-N
     RDKit          3D

 18 18  0  0  0  0  0  0  0  0999 V2000
   16.1977    9.5060    8.5724 N   0  0  0  0  0  0  0  0  0  0  0  0
   15.7221    9.3839    9.8693 C   0  0  0  0  0  0  0  0  0  0  0  0
   14.8963    8.2952   10.1397 C   0  0  0  0  0  0  0  0  0  0  0  0
   14.4860    8.0257   11.4355 C   0  0  0  0  0  0  0  0  0  0  0  0
   13.4871    6.6336   11.6518 Cl  0  0  0  0  0  0  0  0  0  0  0  0
   14.8691    8.8956   12.4580 C   0  0  0  0  0  0  0  0  0  0  0  0
   14.3350    8.7666   14.4394 I   0  0  0  0  0  0  0  0  0  0  0  0
   15.6985    9.9784   12.1912 C   0  0  0  0  0  0  0  0  0  0  0  0
   16.1916   10.1838   10.9160 C   0  0  0  0  0  0  0  0  0  0  0  0
   17.2424   11.0941   10.7055 N   0  0  0  0  0  0  0  0  0  0  0  0
   17.5893   12.1185   11.5658 C   0  0  0  0  0  0  0  0  0  0  0  0
   16.8446   12.6182   12.4072 O   0  0  0  0  0  0  0  0  0  0  0  0
   18.9974   12.6538   11.3933 C   0  0  0  0  0  0  0  0  0  0  0  0
   19.8322   11.7126   10.7476 O   0  0  0  0  0  0  0  0  0  0  0  0
   21.1734   12.2021   10.7048 C   0  0  0  0  0  0  0  0  0  0  0  0
   22.0072   11.1401   10.0297 C   0  0  0  0  0  0  0  0  0  0  0  0
   22.9926   11.7037    9.0394 C   0  0  0  0  0  0  0  0  0  0  0  0
   24.3110   12.8325    9.8169 Br  0  0  0  0  0  0  0  0  0  0  0  0
  1  2  1  0
  2  3  2  0
  3  4  1  0
  4  5  1  0
  4  6  2  0
  6  7  1  0
  6  8  1  0
  8  9  2  0
  9 10  1  0
 10 11  1  0
 11 12  2  0
 11 13  1  0
 13 14  1  0
 14 15  1  0
 15 16  1  0
 16 17  1  0
 17 18  1  0
  9  2  1  0
M  END
>  <ref_pdb>  (348) 
c0270a

>  <inchikey>  (348) 
CXJZFCVVTVWFQD-UHFFFAOYSA-N

>  <original ID>  (348) 
CXJZFCVVTVWFQD-UHFFFAOYSA-N

>  <generation_date>  (348) 
None

>  <alias>  (348) 
None

>  <tags>  (348) 
[]

>  <ref_mols>  (348) 
c0692a,c1116a

>  <ref_url>  (348) 
None

>  <submitter_name>  (348) 
None

>  <exports>  (348) 
nan

>  <original SMILES>  (348) 
Nc1cc(Cl)c(I)cc1NC(=O)COCCCBr

>  <method>  (348) 
None

>  <submitter_email>  (348) 
None

>  <HIPPO ID>  (348) 
113204

$$$$
ZOCCIVREYWDEHZ-UHFFFAOYSA-N
     RDKit          3D

 18 18  0  0  0  0  0  0  0  0999 V2000
   18.2583   10.4767   10.0744 C   0  0  0  0  0  0  0  0  0  0  0  0
   17.2773   11.3064   10.7185 N   0  0  0  0  0  0  0  0  0  0  0  0
   17.7202   12.3908   11.4725 C   0  0  0  0  0  0  0  0  0  0  0  0
   16.9511   13.1054   12.1270 O   0  0  0  0  0  0  0  0  0  0  0  0
   19.2203   12.7863   11.3738 C   0  0  0  0  0  0  0  0  0  0  0  0
   20.1444   11.7086   11.3526 O   0  0  0  0  0  0  0  0  0  0  0  0
   21.4130   12.0023   10.7810 C   0  0  0  0  0  0  0  0  0  0  0  0
   22.4824   11.8169   11.8444 C   0  0  0  0  0  0  0  0  0  0  0  0
   22.2551   12.6744   13.0734 C   0  0  0  0  0  0  0  0  0  0  0  0
   22.4733   14.5607   12.6774 Br  0  0  0  0  0  0  0  0  0  0  0  0
   16.0669   10.5738   10.9599 C   0  0  0  0  0  0  0  0  0  0  0  0
   15.5134    9.8498    9.8728 C   0  0  0  0  0  0  0  0  0  0  0  0
   14.7498    8.7080   10.0700 C   0  0  0  0  0  0  0  0  0  0  0  0
   14.4992    8.3036   11.3679 C   0  0  0  0  0  0  0  0  0  0  0  0
   14.8885    9.1278   12.4321 C   0  0  0  0  0  0  0  0  0  0  0  0
   14.3570    8.6835   14.1839 Br  0  0  0  0  0  0  0  0  0  0  0  0
   15.6286   10.3031   12.2586 C   0  0  0  0  0  0  0  0  0  0  0  0
   16.1500   10.9694   13.3963 N   0  0  0  0  0  0  0  0  0  0  0  0
  1  2  1  0
  2  3  1  0
  3  4  2  0
  3  5  1  0
  5  6  1  0
  6  7  1  0
  7  8  1  0
  8  9  1  0
  9 10  1  0
  2 11  1  0
 11 12  2  0
 12 13  1  0
 13 14  2  0
 14 15  1  0
 15 16  1  0
 15 17  2  0
 17 18  1  0
 17 11  1  0
M  END
>  <ref_pdb>  (349) 
c0270a

>  <inchikey>  (349) 
ZOCCIVREYWDEHZ-UHFFFAOYSA-N

>  <original ID>  (349) 
ZOCCIVREYWDEHZ-UHFFFAOYSA-N

>  <generation_date>  (349) 
None

>  <alias>  (349) 
None

>  <tags>  (349) 
[]

>  <ref_mols>  (349) 
c0692a,c1116a

>  <ref_url>  (349) 
None

>  <submitter_name>  (349) 
None

>  <exports>  (349) 
nan

>  <original SMILES>  (349) 
CN(C(=O)COCCCBr)c1cccc(Br)c1N

>  <method>  (349) 
None

>  <submitter_email>  (349) 
None

>  <HIPPO ID>  (349) 
113207

$$$$
PGJAZSRUDQMMIA-UHFFFAOYSA-N
     RDKit          3D

 18 18  0  0  0  0  0  0  0  0999 V2000
   14.3732    9.0913   13.8599 C   0  0  0  0  0  0  0  0  0  0  0  0
   14.8691    9.0645   12.4559 C   0  0  0  0  0  0  0  0  0  0  0  0
   15.7459   10.1073   12.1369 C   0  0  0  0  0  0  0  0  0  0  0  0
   16.2914   10.2106   10.8701 C   0  0  0  0  0  0  0  0  0  0  0  0
   17.4096   11.0308   10.6200 N   0  0  0  0  0  0  0  0  0  0  0  0
   17.8659   12.0470   11.4337 C   0  0  0  0  0  0  0  0  0  0  0  0
   17.1823   12.6415   12.2669 O   0  0  0  0  0  0  0  0  0  0  0  0
   19.3267   12.4449   11.2165 C   0  0  0  0  0  0  0  0  0  0  0  0
   20.1360   11.3394   10.8390 O   0  0  0  0  0  0  0  0  0  0  0  0
   21.5341   11.5774   11.0662 C   0  0  0  0  0  0  0  0  0  0  0  0
   22.1595   12.2436    9.8557 C   0  0  0  0  0  0  0  0  0  0  0  0
   23.6143   12.6018   10.0249 C   0  0  0  0  0  0  0  0  0  0  0  0
   24.4202   12.8878    8.2828 Br  0  0  0  0  0  0  0  0  0  0  0  0
   15.8026    9.3777    9.8588 C   0  0  0  0  0  0  0  0  0  0  0  0
   16.2711    9.4477    8.5537 N   0  0  0  0  0  0  0  0  0  0  0  0
   14.9670    8.3121   10.1736 C   0  0  0  0  0  0  0  0  0  0  0  0
   14.5364    8.1198   11.4755 C   0  0  0  0  0  0  0  0  0  0  0  0
   13.4954    6.5585   11.7801 Br  0  0  0  0  0  0  0  0  0  0  0  0
  1  2  1  0
  2  3  2  0
  3  4  1  0
  4  5  1  0
  5  6  1  0
  6  7  2  0
  6  8  1  0
  8  9  1  0
  9 10  1  0
 10 11  1  0
 11 12  1  0
 12 13  1  0
  4 14  2  0
 14 15  1  0
 14 16  1  0
 16 17  2  0
 17 18  1  0
 17  2  1  0
M  END
>  <ref_pdb>  (350) 
c0270a

>  <inchikey>  (350) 
PGJAZSRUDQMMIA-UHFFFAOYSA-N

>  <original ID>  (350) 
PGJAZSRUDQMMIA-UHFFFAOYSA-N

>  <generation_date>  (350) 
None

>  <alias>  (350) 
None

>  <tags>  (350) 
[]

>  <ref_mols>  (350) 
c0692a,c1116a

>  <ref_url>  (350) 
None

>  <submitter_name>  (350) 
None

>  <exports>  (350) 
nan

>  <original SMILES>  (350) 
Cc1cc(NC(=O)COCCCBr)c(N)cc1Br

>  <method>  (350) 
None

>  <submitter_email>  (350) 
None

>  <HIPPO ID>  (350) 
113208

$$$$
WHYBVIKFJCREMW-UHFFFAOYSA-N
     RDKit          3D

 18 18  0  0  0  0  0  0  0  0999 V2000
   16.1107    9.5102    8.7087 N   0  0  0  0  0  0  0  0  0  0  0  0
   15.8295    9.3280   10.0540 C   0  0  0  0  0  0  0  0  0  0  0  0
   14.9622    8.2837   10.3875 C   0  0  0  0  0  0  0  0  0  0  0  0
   14.5456    8.1202   11.6976 C   0  0  0  0  0  0  0  0  0  0  0  0
   14.9050    9.0757   12.6433 C   0  0  0  0  0  0  0  0  0  0  0  0
   14.2050    8.9978   14.3860 Br  0  0  0  0  0  0  0  0  0  0  0  0
   15.7511   10.1289   12.3231 C   0  0  0  0  0  0  0  0  0  0  0  0
   16.1044   10.9673   13.3443 O   0  0  0  0  0  0  0  0  0  0  0  0
   16.2747   10.2329   11.0354 C   0  0  0  0  0  0  0  0  0  0  0  0
   17.3754   11.0687   10.7294 N   0  0  0  0  0  0  0  0  0  0  0  0
   17.7656   12.1834   11.4267 C   0  0  0  0  0  0  0  0  0  0  0  0
   17.0028   12.8630   12.1175 O   0  0  0  0  0  0  0  0  0  0  0  0
   19.2337   12.5545   11.3155 C   0  0  0  0  0  0  0  0  0  0  0  0
   19.9453   11.8069   10.3494 O   0  0  0  0  0  0  0  0  0  0  0  0
   21.3476   11.7197   10.6068 C   0  0  0  0  0  0  0  0  0  0  0  0
   22.0821   13.0589   10.7450 C   0  0  0  0  0  0  0  0  0  0  0  0
   22.1522   13.9098    9.4866 C   0  0  0  0  0  0  0  0  0  0  0  0
   20.6755   15.1709    9.3569 Br  0  0  0  0  0  0  0  0  0  0  0  0
  1  2  1  0
  2  3  2  0
  3  4  1  0
  4  5  2  0
  5  6  1  0
  5  7  1  0
  7  8  1  0
  7  9  2  0
  9 10  1  0
 10 11  1  0
 11 12  2  0
 11 13  1  0
 13 14  1  0
 14 15  1  0
 15 16  1  0
 16 17  1  0
 17 18  1  0
  9  2  1  0
M  END
>  <ref_pdb>  (351) 
c0270a

>  <inchikey>  (351) 
WHYBVIKFJCREMW-UHFFFAOYSA-N

>  <original ID>  (351) 
WHYBVIKFJCREMW-UHFFFAOYSA-N

>  <generation_date>  (351) 
None

>  <alias>  (351) 
None

>  <tags>  (351) 
[]

>  <ref_mols>  (351) 
c0692a,c1116a

>  <ref_url>  (351) 
None

>  <submitter_name>  (351) 
None

>  <exports>  (351) 
nan

>  <original SMILES>  (351) 
Nc1ccc(Br)c(O)c1NC(=O)COCCCBr

>  <method>  (351) 
None

>  <submitter_email>  (351) 
None

>  <HIPPO ID>  (351) 
113210

$$$$
PXJQHGGTKOSVMC-UHFFFAOYSA-N
     RDKit          3D

 18 18  0  0  0  0  0  0  0  0999 V2000
   16.1146   11.0100   13.2174 N   0  0  0  0  0  0  0  0  0  0  0  0
   15.7373   10.2455   12.0871 C   0  0  0  0  0  0  0  0  0  0  0  0
   14.8139    9.2240   12.3049 C   0  0  0  0  0  0  0  0  0  0  0  0
   14.1735    9.2437   13.4766 F   0  0  0  0  0  0  0  0  0  0  0  0
   14.4803    8.2648   11.3532 C   0  0  0  0  0  0  0  0  0  0  0  0
   15.0072    8.3839   10.0881 C   0  0  0  0  0  0  0  0  0  0  0  0
   15.9672    9.3595    9.8582 C   0  0  0  0  0  0  0  0  0  0  0  0
   16.4998    9.3932    8.6366 F   0  0  0  0  0  0  0  0  0  0  0  0
   16.4029   10.2524   10.8582 C   0  0  0  0  0  0  0  0  0  0  0  0
   17.5666   11.0135   10.6040 N   0  0  0  0  0  0  0  0  0  0  0  0
   17.9941   12.1441   11.2674 C   0  0  0  0  0  0  0  0  0  0  0  0
   17.2744   12.8759   11.9507 O   0  0  0  0  0  0  0  0  0  0  0  0
   19.4778   12.4721   11.1015 C   0  0  0  0  0  0  0  0  0  0  0  0
   20.1259   11.5832   10.2133 O   0  0  0  0  0  0  0  0  0  0  0  0
   21.3909   11.1119   10.6487 C   0  0  0  0  0  0  0  0  0  0  0  0
   22.5066   12.1403   10.7582 C   0  0  0  0  0  0  0  0  0  0  0  0
   23.0405   12.6890    9.4509 C   0  0  0  0  0  0  0  0  0  0  0  0
   22.1801   14.3853    9.0627 Br  0  0  0  0  0  0  0  0  0  0  0  0
  1  2  1  0
  2  3  2  0
  3  4  1  0
  3  5  1  0
  5  6  2  0
  6  7  1  0
  7  8  1  0
  7  9  2  0
  9 10  1  0
 10 11  1  0
 11 12  2  0
 11 13  1  0
 13 14  1  0
 14 15  1  0
 15 16  1  0
 16 17  1  0
 17 18  1  0
  9  2  1  0
M  END
>  <ref_pdb>  (352) 
c0270a

>  <inchikey>  (352) 
PXJQHGGTKOSVMC-UHFFFAOYSA-N

>  <original ID>  (352) 
PXJQHGGTKOSVMC-UHFFFAOYSA-N

>  <generation_date>  (352) 
None

>  <alias>  (352) 
None

>  <tags>  (352) 
[]

>  <ref_mols>  (352) 
c0692a,c1116a

>  <ref_url>  (352) 
None

>  <submitter_name>  (352) 
None

>  <exports>  (352) 
nan

>  <original SMILES>  (352) 
Nc1c(F)ccc(F)c1NC(=O)COCCCBr

>  <method>  (352) 
None

>  <submitter_email>  (352) 
None

>  <HIPPO ID>  (352) 
113247

$$$$
RTMDVGFUJNUVJJ-UHFFFAOYSA-N
     RDKit          3D

 18 18  0  0  0  0  0  0  0  0999 V2000
   14.3307    9.1622   13.8632 C   0  0  0  0  0  0  0  0  0  0  0  0
   14.8784    9.1469   12.4835 C   0  0  0  0  0  0  0  0  0  0  0  0
   15.8134   10.1296   12.1852 C   0  0  0  0  0  0  0  0  0  0  0  0
   16.3522   10.2291   10.9125 C   0  0  0  0  0  0  0  0  0  0  0  0
   17.4606   11.0701   10.6789 N   0  0  0  0  0  0  0  0  0  0  0  0
   17.8230   12.1322   11.4835 C   0  0  0  0  0  0  0  0  0  0  0  0
   17.0851   12.6780   12.3054 O   0  0  0  0  0  0  0  0  0  0  0  0
   19.2344   12.6743   11.2914 C   0  0  0  0  0  0  0  0  0  0  0  0
   20.1366   11.8335   10.6002 O   0  0  0  0  0  0  0  0  0  0  0  0
   21.4265   12.4713   10.5187 C   0  0  0  0  0  0  0  0  0  0  0  0
   22.4064   11.5074    9.8831 C   0  0  0  0  0  0  0  0  0  0  0  0
   23.2924   12.0959    8.8038 C   0  0  0  0  0  0  0  0  0  0  0  0
   24.5703   13.3751    9.4144 Br  0  0  0  0  0  0  0  0  0  0  0  0
   15.8433    9.4054    9.8958 C   0  0  0  0  0  0  0  0  0  0  0  0
   16.3041    9.4611    8.5876 N   0  0  0  0  0  0  0  0  0  0  0  0
   14.9466    8.3862   10.1992 C   0  0  0  0  0  0  0  0  0  0  0  0
   14.4818    8.2526   11.4893 C   0  0  0  0  0  0  0  0  0  0  0  0
   13.5660    7.3041   11.7345 F   0  0  0  0  0  0  0  0  0  0  0  0
  1  2  1  0
  2  3  2  0
  3  4  1  0
  4  5  1  0
  5  6  1  0
  6  7  2  0
  6  8  1  0
  8  9  1  0
  9 10  1  0
 10 11  1  0
 11 12  1  0
 12 13  1  0
  4 14  2  0
 14 15  1  0
 14 16  1  0
 16 17  2  0
 17 18  1  0
 17  2  1  0
M  END
>  <ref_pdb>  (353) 
c0270a

>  <inchikey>  (353) 
RTMDVGFUJNUVJJ-UHFFFAOYSA-N

>  <original ID>  (353) 
RTMDVGFUJNUVJJ-UHFFFAOYSA-N

>  <generation_date>  (353) 
None

>  <alias>  (353) 
None

>  <tags>  (353) 
[]

>  <ref_mols>  (353) 
c0692a,c1116a

>  <ref_url>  (353) 
None

>  <submitter_name>  (353) 
None

>  <exports>  (353) 
nan

>  <original SMILES>  (353) 
Cc1cc(NC(=O)COCCCBr)c(N)cc1F

>  <method>  (353) 
None

>  <submitter_email>  (353) 
None

>  <HIPPO ID>  (353) 
113258

$$$$
PXRMGVRTTQITNG-UHFFFAOYSA-N
     RDKit          3D

 18 18  0  0  0  0  0  0  0  0999 V2000
   16.0584    9.3900    8.4899 N   0  0  0  0  0  0  0  0  0  0  0  0
   15.5917    9.2753    9.7912 C   0  0  0  0  0  0  0  0  0  0  0  0
   14.7865    8.1950   10.1205 C   0  0  0  0  0  0  0  0  0  0  0  0
   14.4376    7.9693   11.4454 C   0  0  0  0  0  0  0  0  0  0  0  0
   13.3226    6.2253   11.8068 I   0  0  0  0  0  0  0  0  0  0  0  0
   14.8300    8.8997   12.4183 C   0  0  0  0  0  0  0  0  0  0  0  0
   14.3284    8.8939   14.0530 Cl  0  0  0  0  0  0  0  0  0  0  0  0
   15.6748    9.9527   12.0963 C   0  0  0  0  0  0  0  0  0  0  0  0
   16.1317   10.0708   10.8027 C   0  0  0  0  0  0  0  0  0  0  0  0
   17.2419   10.8423   10.4574 N   0  0  0  0  0  0  0  0  0  0  0  0
   17.9757   11.6491   11.2863 C   0  0  0  0  0  0  0  0  0  0  0  0
   17.5542   12.2042   12.2967 O   0  0  0  0  0  0  0  0  0  0  0  0
   19.4268   11.7281   10.8355 C   0  0  0  0  0  0  0  0  0  0  0  0
   19.8496   13.0657   10.8550 O   0  0  0  0  0  0  0  0  0  0  0  0
   20.9639   13.2551   11.7156 C   0  0  0  0  0  0  0  0  0  0  0  0
   22.2793   12.9050   11.0686 C   0  0  0  0  0  0  0  0  0  0  0  0
   23.2694   12.4720   11.6294 O   0  0  0  0  0  0  0  0  0  0  0  0
   22.2666   13.1658    9.7510 O   0  0  0  0  0  0  0  0  0  0  0  0
  1  2  1  0
  2  3  2  0
  3  4  1  0
  4  5  1  0
  4  6  2  0
  6  7  1  0
  6  8  1  0
  8  9  2  0
  9 10  1  0
 10 11  1  0
 11 12  2  0
 11 13  1  0
 13 14  1  0
 14 15  1  0
 15 16  1  0
 16 17  2  0
 16 18  1  0
  9  2  1  0
M  END
>  <ref_pdb>  (354) 
c0270a

>  <inchikey>  (354) 
PXRMGVRTTQITNG-UHFFFAOYSA-N

>  <original ID>  (354) 
PXRMGVRTTQITNG-UHFFFAOYSA-N

>  <generation_date>  (354) 
None

>  <alias>  (354) 
None

>  <tags>  (354) 
[]

>  <ref_mols>  (354) 
c0692a,c1116a

>  <ref_url>  (354) 
None

>  <submitter_name>  (354) 
None

>  <exports>  (354) 
nan

>  <original SMILES>  (354) 
Nc1cc(I)c(Cl)cc1NC(=O)COCC(=O)O

>  <method>  (354) 
None

>  <submitter_email>  (354) 
None

>  <HIPPO ID>  (354) 
113271

$$$$
LJQFDSSOPPYCCR-UHFFFAOYSA-N
     RDKit          3D

 18 18  0  0  0  0  0  0  0  0999 V2000
   18.3606   10.5698   10.2051 C   0  0  0  0  0  0  0  0  0  0  0  0
   17.3516   11.3797   10.8152 N   0  0  0  0  0  0  0  0  0  0  0  0
   17.7542   12.4882   11.5562 C   0  0  0  0  0  0  0  0  0  0  0  0
   16.9507   13.2019   12.1694 O   0  0  0  0  0  0  0  0  0  0  0  0
   19.2578   12.9353   11.5059 C   0  0  0  0  0  0  0  0  0  0  0  0
   20.2853   11.9724   11.3110 O   0  0  0  0  0  0  0  0  0  0  0  0
   21.5725   12.5543   11.0175 C   0  0  0  0  0  0  0  0  0  0  0  0
   22.2601   11.6873    9.9681 C   0  0  0  0  0  0  0  0  0  0  0  0
   23.2981   11.9631    9.3995 O   0  0  0  0  0  0  0  0  0  0  0  0
   21.5392   10.5713    9.7293 O   0  0  0  0  0  0  0  0  0  0  0  0
   16.1370   10.6405   11.0186 C   0  0  0  0  0  0  0  0  0  0  0  0
   15.6272    9.8902    9.9274 C   0  0  0  0  0  0  0  0  0  0  0  0
   14.8451    8.7593   10.1180 C   0  0  0  0  0  0  0  0  0  0  0  0
   14.5451    8.3823   11.4131 C   0  0  0  0  0  0  0  0  0  0  0  0
   14.9001    9.2254   12.4743 C   0  0  0  0  0  0  0  0  0  0  0  0
   14.3291    8.8032   14.2191 Br  0  0  0  0  0  0  0  0  0  0  0  0
   15.6434   10.3994   12.3028 C   0  0  0  0  0  0  0  0  0  0  0  0
   16.1125   11.1004   13.4425 N   0  0  0  0  0  0  0  0  0  0  0  0
  1  2  1  0
  2  3  1  0
  3  4  2  0
  3  5  1  0
  5  6  1  0
  6  7  1  0
  7  8  1  0
  8  9  2  0
  8 10  1  0
  2 11  1  0
 11 12  2  0
 12 13  1  0
 13 14  2  0
 14 15  1  0
 15 16  1  0
 15 17  2  0
 17 18  1  0
 17 11  1  0
M  END
>  <ref_pdb>  (355) 
c0270a

>  <inchikey>  (355) 
LJQFDSSOPPYCCR-UHFFFAOYSA-N

>  <original ID>  (355) 
LJQFDSSOPPYCCR-UHFFFAOYSA-N

>  <generation_date>  (355) 
None

>  <alias>  (355) 
None

>  <tags>  (355) 
[]

>  <ref_mols>  (355) 
c0692a,c1116a

>  <ref_url>  (355) 
None

>  <submitter_name>  (355) 
None

>  <exports>  (355) 
nan

>  <original SMILES>  (355) 
CN(C(=O)COCC(=O)O)c1cccc(Br)c1N

>  <method>  (355) 
None

>  <submitter_email>  (355) 
None

>  <HIPPO ID>  (355) 
113276

$$$$
JVJGGICVKQBCFL-UHFFFAOYSA-N
     RDKit          3D

 18 18  0  0  0  0  0  0  0  0999 V2000
   16.1906    9.4779    8.6286 N   0  0  0  0  0  0  0  0  0  0  0  0
   15.7983    9.4215    9.9637 C   0  0  0  0  0  0  0  0  0  0  0  0
   14.9440    8.3829   10.3335 C   0  0  0  0  0  0  0  0  0  0  0  0
   14.5411    8.2579   11.6533 C   0  0  0  0  0  0  0  0  0  0  0  0
   14.9528    9.2121   12.5791 C   0  0  0  0  0  0  0  0  0  0  0  0
   14.2725    9.2299   14.3285 Br  0  0  0  0  0  0  0  0  0  0  0  0
   15.8891   10.1796   12.2462 C   0  0  0  0  0  0  0  0  0  0  0  0
   16.4329   10.9361   13.2489 O   0  0  0  0  0  0  0  0  0  0  0  0
   16.3664   10.2558   10.9446 C   0  0  0  0  0  0  0  0  0  0  0  0
   17.4918   11.0314   10.6082 N   0  0  0  0  0  0  0  0  0  0  0  0
   17.9362   12.1630   11.2633 C   0  0  0  0  0  0  0  0  0  0  0  0
   17.2233   12.9611   11.8710 O   0  0  0  0  0  0  0  0  0  0  0  0
   19.4366   12.4202   11.1083 C   0  0  0  0  0  0  0  0  0  0  0  0
   20.0890   11.3144   10.4989 O   0  0  0  0  0  0  0  0  0  0  0  0
   21.4946   11.3123   10.7040 C   0  0  0  0  0  0  0  0  0  0  0  0
   22.3363   12.1089    9.7275 C   0  0  0  0  0  0  0  0  0  0  0  0
   23.2209   11.6768    9.0207 O   0  0  0  0  0  0  0  0  0  0  0  0
   22.0708   13.4259    9.6951 O   0  0  0  0  0  0  0  0  0  0  0  0
  1  2  1  0
  2  3  2  0
  3  4  1  0
  4  5  2  0
  5  6  1  0
  5  7  1  0
  7  8  1  0
  7  9  2  0
  9 10  1  0
 10 11  1  0
 11 12  2  0
 11 13  1  0
 13 14  1  0
 14 15  1  0
 15 16  1  0
 16 17  2  0
 16 18  1  0
  9  2  1  0
M  END
>  <ref_pdb>  (356) 
c0270a

>  <inchikey>  (356) 
JVJGGICVKQBCFL-UHFFFAOYSA-N

>  <original ID>  (356) 
JVJGGICVKQBCFL-UHFFFAOYSA-N

>  <generation_date>  (356) 
None

>  <alias>  (356) 
None

>  <tags>  (356) 
[]

>  <ref_mols>  (356) 
c0692a,c1116a

>  <ref_url>  (356) 
None

>  <submitter_name>  (356) 
None

>  <exports>  (356) 
nan

>  <original SMILES>  (356) 
Nc1ccc(Br)c(O)c1NC(=O)COCC(=O)O

>  <method>  (356) 
None

>  <submitter_email>  (356) 
None

>  <HIPPO ID>  (356) 
113279

$$$$
YWKMMRALRQKNCR-UHFFFAOYSA-N
     RDKit          3D

 18 18  0  0  0  0  0  0  0  0999 V2000
   14.3680    9.0610   13.8665 C   0  0  0  0  0  0  0  0  0  0  0  0
   14.8596    9.0466   12.4608 C   0  0  0  0  0  0  0  0  0  0  0  0
   15.7303   10.0957   12.1470 C   0  0  0  0  0  0  0  0  0  0  0  0
   16.2708   10.2106   10.8797 C   0  0  0  0  0  0  0  0  0  0  0  0
   17.3782   11.0409   10.6257 N   0  0  0  0  0  0  0  0  0  0  0  0
   17.8822   12.0205   11.4577 C   0  0  0  0  0  0  0  0  0  0  0  0
   17.2612   12.5689   12.3666 O   0  0  0  0  0  0  0  0  0  0  0  0
   19.3279   12.4224   11.1556 C   0  0  0  0  0  0  0  0  0  0  0  0
   20.0025   11.4059   10.4264 O   0  0  0  0  0  0  0  0  0  0  0  0
   21.4209   11.4689   10.5483 C   0  0  0  0  0  0  0  0  0  0  0  0
   22.1823   12.5140    9.7380 C   0  0  0  0  0  0  0  0  0  0  0  0
   23.2961   12.3856    9.2660 O   0  0  0  0  0  0  0  0  0  0  0  0
   21.5425   13.6997    9.6047 O   0  0  0  0  0  0  0  0  0  0  0  0
   15.7854    9.3806    9.8634 C   0  0  0  0  0  0  0  0  0  0  0  0
   16.2585    9.4547    8.5596 N   0  0  0  0  0  0  0  0  0  0  0  0
   14.9554    8.3093   10.1733 C   0  0  0  0  0  0  0  0  0  0  0  0
   14.5274    8.1076   11.4747 C   0  0  0  0  0  0  0  0  0  0  0  0
   13.4863    6.5450   11.7708 Br  0  0  0  0  0  0  0  0  0  0  0  0
  1  2  1  0
  2  3  2  0
  3  4  1  0
  4  5  1  0
  5  6  1  0
  6  7  2  0
  6  8  1  0
  8  9  1  0
  9 10  1  0
 10 11  1  0
 11 12  2  0
 11 13  1  0
  4 14  2  0
 14 15  1  0
 14 16  1  0
 16 17  2  0
 17 18  1  0
 17  2  1  0
M  END
>  <ref_pdb>  (357) 
c0270a

>  <inchikey>  (357) 
YWKMMRALRQKNCR-UHFFFAOYSA-N

>  <original ID>  (357) 
YWKMMRALRQKNCR-UHFFFAOYSA-N

>  <generation_date>  (357) 
None

>  <alias>  (357) 
None

>  <tags>  (357) 
[]

>  <ref_mols>  (357) 
c0692a,c1116a

>  <ref_url>  (357) 
None

>  <submitter_name>  (357) 
None

>  <exports>  (357) 
nan

>  <original SMILES>  (357) 
Cc1cc(NC(=O)COCC(=O)O)c(N)cc1Br

>  <method>  (357) 
None

>  <submitter_email>  (357) 
None

>  <HIPPO ID>  (357) 
113281

$$$$
WAEGUKURAJFLEH-UHFFFAOYSA-N
     RDKit          3D

 18 18  0  0  0  0  0  0  0  0999 V2000
   14.3845    9.2117   13.8532 C   0  0  0  0  0  0  0  0  0  0  0  0
   14.9010    9.1464   12.4581 C   0  0  0  0  0  0  0  0  0  0  0  0
   15.8002   10.1639   12.1235 C   0  0  0  0  0  0  0  0  0  0  0  0
   16.3496   10.2289   10.8565 C   0  0  0  0  0  0  0  0  0  0  0  0
   17.4904   11.0116   10.5877 N   0  0  0  0  0  0  0  0  0  0  0  0
   18.0139   12.0042   11.3912 C   0  0  0  0  0  0  0  0  0  0  0  0
   17.3916   12.5986   12.2714 O   0  0  0  0  0  0  0  0  0  0  0  0
   19.4756   12.3716   11.0951 C   0  0  0  0  0  0  0  0  0  0  0  0
   20.1825   11.3490   10.4059 O   0  0  0  0  0  0  0  0  0  0  0  0
   21.5746   11.6507   10.2441 C   0  0  0  0  0  0  0  0  0  0  0  0
   22.4885   11.4944   11.4443 C   0  0  0  0  0  0  0  0  0  0  0  0
   23.6247   11.9187   11.5664 O   0  0  0  0  0  0  0  0  0  0  0  0
   21.9152   10.8423   12.4606 O   0  0  0  0  0  0  0  0  0  0  0  0
   15.8349    9.3919    9.8592 C   0  0  0  0  0  0  0  0  0  0  0  0
   16.2867    9.4416    8.5474 N   0  0  0  0  0  0  0  0  0  0  0  0
   14.9845    8.3445   10.1924 C   0  0  0  0  0  0  0  0  0  0  0  0
   14.5547    8.1863   11.4971 C   0  0  0  0  0  0  0  0  0  0  0  0
   13.5840    6.7938   11.8207 Cl  0  0  0  0  0  0  0  0  0  0  0  0
  1  2  1  0
  2  3  2  0
  3  4  1  0
  4  5  1  0
  5  6  1  0
  6  7  2  0
  6  8  1  0
  8  9  1  0
  9 10  1  0
 10 11  1  0
 11 12  2  0
 11 13  1  0
  4 14  2  0
 14 15  1  0
 14 16  1  0
 16 17  2  0
 17 18  1  0
 17  2  1  0
M  END
>  <ref_pdb>  (358) 
c0270a

>  <inchikey>  (358) 
WAEGUKURAJFLEH-UHFFFAOYSA-N

>  <original ID>  (358) 
WAEGUKURAJFLEH-UHFFFAOYSA-N

>  <generation_date>  (358) 
None

>  <alias>  (358) 
None

>  <tags>  (358) 
[]

>  <ref_mols>  (358) 
c0692a,c1116a

>  <ref_url>  (358) 
None

>  <submitter_name>  (358) 
None

>  <exports>  (358) 
nan

>  <original SMILES>  (358) 
Cc1cc(NC(=O)COCC(=O)O)c(N)cc1Cl

>  <method>  (358) 
None

>  <submitter_email>  (358) 
None

>  <HIPPO ID>  (358) 
113294

$$$$
SKDNDXXNADBTDG-UHFFFAOYSA-N
     RDKit          3D

 18 18  0  0  0  0  0  0  0  0999 V2000
   14.7985    9.8696    8.5745 C   0  0  0  0  0  0  0  0  0  0  0  0
   16.0501    9.2408    8.9573 N   0  0  0  0  0  0  0  0  0  0  0  0
   15.9681    9.0911   10.3575 C   0  0  0  0  0  0  0  0  0  0  0  0
   15.1211    8.0771   10.8323 C   0  0  0  0  0  0  0  0  0  0  0  0
   14.6556    8.1257   12.1317 C   0  0  0  0  0  0  0  0  0  0  0  0
   14.9868    9.2274   12.9095 C   0  0  0  0  0  0  0  0  0  0  0  0
   14.2313    9.5076   14.5890 Br  0  0  0  0  0  0  0  0  0  0  0  0
   15.8637   10.2043   12.4730 C   0  0  0  0  0  0  0  0  0  0  0  0
   16.4041   10.1216   11.2059 C   0  0  0  0  0  0  0  0  0  0  0  0
   17.4225   10.9963   10.7889 N   0  0  0  0  0  0  0  0  0  0  0  0
   17.8214   12.1250   11.4710 C   0  0  0  0  0  0  0  0  0  0  0  0
   17.1139   12.7864   12.2293 O   0  0  0  0  0  0  0  0  0  0  0  0
   19.2637   12.5339   11.2250 C   0  0  0  0  0  0  0  0  0  0  0  0
   19.9727   11.5911   10.4367 O   0  0  0  0  0  0  0  0  0  0  0  0
   21.3846   11.6944   10.5988 C   0  0  0  0  0  0  0  0  0  0  0  0
   22.0829   13.0241   10.3108 C   0  0  0  0  0  0  0  0  0  0  0  0
   23.2620   13.2657   10.4988 O   0  0  0  0  0  0  0  0  0  0  0  0
   21.2976   14.0037    9.8148 O   0  0  0  0  0  0  0  0  0  0  0  0
  1  2  1  0
  2  3  1  0
  3  4  2  0
  4  5  1  0
  5  6  2  0
  6  7  1  0
  6  8  1  0
  8  9  2  0
  9 10  1  0
 10 11  1  0
 11 12  2  0
 11 13  1  0
 13 14  1  0
 14 15  1  0
 15 16  1  0
 16 17  2  0
 16 18  1  0
  9  3  1  0
M  END
>  <ref_pdb>  (359) 
c0270a

>  <inchikey>  (359) 
SKDNDXXNADBTDG-UHFFFAOYSA-N

>  <original ID>  (359) 
SKDNDXXNADBTDG-UHFFFAOYSA-N

>  <generation_date>  (359) 
None

>  <alias>  (359) 
None

>  <tags>  (359) 
[]

>  <ref_mols>  (359) 
c0692a,c1116a

>  <ref_url>  (359) 
None

>  <submitter_name>  (359) 
None

>  <exports>  (359) 
nan

>  <original SMILES>  (359) 
CNc1ccc(Br)cc1NC(=O)COCC(=O)O

>  <method>  (359) 
None

>  <submitter_email>  (359) 
None

>  <HIPPO ID>  (359) 
113296

$$$$
SZHGKJCOJLVIRF-UHFFFAOYSA-N
     RDKit          3D

 18 18  0  0  0  0  0  0  0  0999 V2000
   15.9159   10.9208   13.4630 C   0  0  0  0  0  0  0  0  0  0  0  0
   15.6650   10.0686   12.2589 C   0  0  0  0  0  0  0  0  0  0  0  0
   14.7579    9.0310   12.4399 C   0  0  0  0  0  0  0  0  0  0  0  0
   14.1070    8.9840   13.6023 F   0  0  0  0  0  0  0  0  0  0  0  0
   14.4551    8.0901   11.4657 C   0  0  0  0  0  0  0  0  0  0  0  0
   14.9486    8.2820   10.1973 C   0  0  0  0  0  0  0  0  0  0  0  0
   15.7938    9.3606    9.9449 C   0  0  0  0  0  0  0  0  0  0  0  0
   16.2769    9.4725    8.6448 N   0  0  0  0  0  0  0  0  0  0  0  0
   16.2515   10.1907   10.9976 C   0  0  0  0  0  0  0  0  0  0  0  0
   17.3808   10.9959   10.7323 N   0  0  0  0  0  0  0  0  0  0  0  0
   17.7553   12.1550   11.3668 C   0  0  0  0  0  0  0  0  0  0  0  0
   17.0030   12.9043   11.9862 O   0  0  0  0  0  0  0  0  0  0  0  0
   19.2288   12.5187   11.2252 C   0  0  0  0  0  0  0  0  0  0  0  0
   20.0015   11.5771   10.4966 O   0  0  0  0  0  0  0  0  0  0  0  0
   21.4036   11.8584   10.5744 C   0  0  0  0  0  0  0  0  0  0  0  0
   21.8655   13.2306   10.0588 C   0  0  0  0  0  0  0  0  0  0  0  0
   21.1527   14.1126    9.5966 O   0  0  0  0  0  0  0  0  0  0  0  0
   23.1937   13.3996   10.1821 O   0  0  0  0  0  0  0  0  0  0  0  0
  1  2  1  0
  2  3  2  0
  3  4  1  0
  3  5  1  0
  5  6  2  0
  6  7  1  0
  7  8  1  0
  7  9  2  0
  9 10  1  0
 10 11  1  0
 11 12  2  0
 11 13  1  0
 13 14  1  0
 14 15  1  0
 15 16  1  0
 16 17  2  0
 16 18  1  0
  9  2  1  0
M  END
>  <ref_pdb>  (360) 
c0270a

>  <inchikey>  (360) 
SZHGKJCOJLVIRF-UHFFFAOYSA-N

>  <original ID>  (360) 
SZHGKJCOJLVIRF-UHFFFAOYSA-N

>  <generation_date>  (360) 
None

>  <alias>  (360) 
None

>  <tags>  (360) 
[]

>  <ref_mols>  (360) 
c0692a,c1116a

>  <ref_url>  (360) 
None

>  <submitter_name>  (360) 
None

>  <exports>  (360) 
nan

>  <original SMILES>  (360) 
Cc1c(F)ccc(N)c1NC(=O)COCC(=O)O

>  <method>  (360) 
None

>  <submitter_email>  (360) 
None

>  <HIPPO ID>  (360) 
113297

$$$$
ANUHNKISDQULEP-SECBINFHSA-N
     RDKit          3D

 18 18  0  0  0  0  0  0  0  0999 V2000
   21.5336   11.6190   10.7542 C   0  0  0  0  0  0  0  0  0  0  0  0
   20.1181   11.7619   10.7608 O   0  0  0  0  0  0  0  0  0  0  0  0
   19.6596   12.8784   11.5494 C   0  0  1  0  0  0  0  0  0  0  0  0
   19.8888   14.1978   10.8402 C   0  0  0  0  0  0  0  0  0  0  0  0
   20.1585   14.3651    9.6581 O   0  0  0  0  0  0  0  0  0  0  0  0
   19.7737   15.2592   11.6601 O   0  0  0  0  0  0  0  0  0  0  0  0
   18.1606   12.6569   11.8347 C   0  0  0  0  0  0  0  0  0  0  0  0
   17.3463   13.5366   12.0836 O   0  0  0  0  0  0  0  0  0  0  0  0
   17.8596   11.3180   11.7621 N   0  0  0  0  0  0  0  0  0  0  0  0
   16.6119   10.7878   11.4405 C   0  0  0  0  0  0  0  0  0  0  0  0
   15.4254   11.3181   11.7950 C   0  0  0  0  0  0  0  0  0  0  0  0
   14.3821   11.0292   10.9334 C   0  0  0  0  0  0  0  0  0  0  0  0
   13.2736   12.3285   10.9473 Cl  0  0  0  0  0  0  0  0  0  0  0  0
   14.4046    9.9639    9.9814 C   0  0  0  0  0  0  0  0  0  0  0  0
   13.3068    9.4069    9.1161 C   0  0  0  0  0  0  0  0  0  0  0  0
   15.6050    9.3317    9.7736 C   0  0  0  0  0  0  0  0  0  0  0  0
   16.6971    9.8554   10.4074 C   0  0  0  0  0  0  0  0  0  0  0  0
   17.9112    9.9600    9.7286 N   0  0  0  0  0  0  0  0  0  0  0  0
  1  2  1  0
  3  2  1  6
  3  4  1  0
  4  5  2  0
  4  6  1  0
  3  7  1  0
  7  8  2  0
  7  9  1  0
  9 10  1  0
 10 11  2  0
 11 12  1  0
 12 13  1  0
 12 14  2  0
 14 15  1  0
 14 16  1  0
 16 17  2  0
 17 18  1  0
 17 10  1  0
M  END
>  <ref_pdb>  (361) 
c0270a

>  <inchikey>  (361) 
ANUHNKISDQULEP-SECBINFHSA-N

>  <original ID>  (361) 
ANUHNKISDQULEP-SECBINFHSA-N

>  <generation_date>  (361) 
None

>  <alias>  (361) 
None

>  <tags>  (361) 
[]

>  <ref_mols>  (361) 
c0692a,c1116a

>  <ref_url>  (361) 
None

>  <submitter_name>  (361) 
None

>  <exports>  (361) 
nan

>  <original SMILES>  (361) 
CO[C@@H](C(=O)O)C(=O)Nc1cc(Cl)c(C)cc1N

>  <method>  (361) 
None

>  <submitter_email>  (361) 
None

>  <HIPPO ID>  (361) 
113313

$$$$
JCWBFLBGTBHRSK-VIFPVBQESA-N
     RDKit          3D

 18 18  0  0  0  0  0  0  0  0999 V2000
   21.4130   11.4077   10.4655 C   0  0  0  0  0  0  0  0  0  0  0  0
   20.0196   11.2480   10.7093 O   0  0  0  0  0  0  0  0  0  0  0  0
   19.3519   12.4243   11.1634 C   0  0  2  0  0  0  0  0  0  0  0  0
   19.8327   13.1160   12.4480 C   0  0  0  0  0  0  0  0  0  0  0  0
   19.1437   13.7263   13.2463 O   0  0  0  0  0  0  0  0  0  0  0  0
   21.1586   13.0572   12.6598 O   0  0  0  0  0  0  0  0  0  0  0  0
   17.8519   12.0666   11.2992 C   0  0  0  0  0  0  0  0  0  0  0  0
   17.0615   12.7243   11.9747 O   0  0  0  0  0  0  0  0  0  0  0  0
   17.4410   10.9769   10.5547 N   0  0  0  0  0  0  0  0  0  0  0  0
   16.3070   10.1913   10.8224 C   0  0  0  0  0  0  0  0  0  0  0  0
   15.7689   10.1290   12.0945 C   0  0  0  0  0  0  0  0  0  0  0  0
   14.8806    9.1072   12.4361 C   0  0  0  0  0  0  0  0  0  0  0  0
   14.3794    9.1684   13.8371 C   0  0  0  0  0  0  0  0  0  0  0  0
   14.5304    8.1481   11.4743 C   0  0  0  0  0  0  0  0  0  0  0  0
   13.5551    6.7598   11.8024 Cl  0  0  0  0  0  0  0  0  0  0  0  0
   14.9563    8.3033   10.1662 C   0  0  0  0  0  0  0  0  0  0  0  0
   15.8028    9.3505    9.8286 C   0  0  0  0  0  0  0  0  0  0  0  0
   16.2647    9.4138    8.5212 N   0  0  0  0  0  0  0  0  0  0  0  0
  1  2  1  0
  3  2  1  1
  3  4  1  0
  4  5  2  0
  4  6  1  0
  3  7  1  0
  7  8  2  0
  7  9  1  0
  9 10  1  0
 10 11  2  0
 11 12  1  0
 12 13  1  0
 12 14  2  0
 14 15  1  0
 14 16  1  0
 16 17  2  0
 17 18  1  0
 17 10  1  0
M  END
>  <ref_pdb>  (362) 
c0270a

>  <inchikey>  (362) 
JCWBFLBGTBHRSK-VIFPVBQESA-N

>  <original ID>  (362) 
JCWBFLBGTBHRSK-VIFPVBQESA-N

>  <generation_date>  (362) 
None

>  <alias>  (362) 
None

>  <tags>  (362) 
[]

>  <ref_mols>  (362) 
c0692a,c1116a

>  <ref_url>  (362) 
None

>  <submitter_name>  (362) 
None

>  <exports>  (362) 
nan

>  <original SMILES>  (362) 
CO[C@H](C(=O)O)C(=O)Nc1cc(C)c(Cl)cc1N

>  <method>  (362) 
None

>  <submitter_email>  (362) 
None

>  <HIPPO ID>  (362) 
113314

$$$$
JCWBFLBGTBHRSK-SECBINFHSA-N
     RDKit          3D

 18 18  0  0  0  0  0  0  0  0999 V2000
   21.4614   11.3531   10.5336 C   0  0  0  0  0  0  0  0  0  0  0  0
   20.0442   11.4267   10.3982 O   0  0  0  0  0  0  0  0  0  0  0  0
   19.4732   12.4182   11.2474 C   0  0  1  0  0  0  0  0  0  0  0  0
   19.7249   13.8535   10.8073 C   0  0  0  0  0  0  0  0  0  0  0  0
   20.1435   14.2289    9.7204 O   0  0  0  0  0  0  0  0  0  0  0  0
   19.4726   14.7621   11.7693 O   0  0  0  0  0  0  0  0  0  0  0  0
   17.9763   12.1265   11.4525 C   0  0  0  0  0  0  0  0  0  0  0  0
   17.3029   12.7686   12.2584 O   0  0  0  0  0  0  0  0  0  0  0  0
   17.4747   11.0799   10.6972 N   0  0  0  0  0  0  0  0  0  0  0  0
   16.3320   10.3057   10.9884 C   0  0  0  0  0  0  0  0  0  0  0  0
   15.7463   10.3137   12.2399 C   0  0  0  0  0  0  0  0  0  0  0  0
   14.8622    9.2963   12.6177 C   0  0  0  0  0  0  0  0  0  0  0  0
   14.3182    9.4299   13.9965 C   0  0  0  0  0  0  0  0  0  0  0  0
   14.5659    8.2655   11.7164 C   0  0  0  0  0  0  0  0  0  0  0  0
   13.6288    6.8640   12.0993 Cl  0  0  0  0  0  0  0  0  0  0  0  0
   15.0211    8.3522   10.4164 C   0  0  0  0  0  0  0  0  0  0  0  0
   15.8670    9.3910   10.0388 C   0  0  0  0  0  0  0  0  0  0  0  0
   16.4007    9.3320    8.7703 N   0  0  0  0  0  0  0  0  0  0  0  0
  1  2  1  0
  3  2  1  6
  3  4  1  0
  4  5  2  0
  4  6  1  0
  3  7  1  0
  7  8  2  0
  7  9  1  0
  9 10  1  0
 10 11  2  0
 11 12  1  0
 12 13  1  0
 12 14  2  0
 14 15  1  0
 14 16  1  0
 16 17  2  0
 17 18  1  0
 17 10  1  0
M  END
>  <ref_pdb>  (363) 
c0270a

>  <inchikey>  (363) 
JCWBFLBGTBHRSK-SECBINFHSA-N

>  <original ID>  (363) 
JCWBFLBGTBHRSK-SECBINFHSA-N

>  <generation_date>  (363) 
None

>  <alias>  (363) 
None

>  <tags>  (363) 
[]

>  <ref_mols>  (363) 
c0692a,c1116a

>  <ref_url>  (363) 
None

>  <submitter_name>  (363) 
None

>  <exports>  (363) 
nan

>  <original SMILES>  (363) 
CO[C@@H](C(=O)O)C(=O)Nc1cc(C)c(Cl)cc1N

>  <method>  (363) 
None

>  <submitter_email>  (363) 
None

>  <HIPPO ID>  (363) 
113315

$$$$
MEIUDYWQVZOFPL-UHFFFAOYSA-N
     RDKit          3D

 18 19  0  0  0  0  0  0  0  0999 V2000
   17.1979    9.2885    7.5555 O   0  0  0  0  0  0  0  0  0  0  0  0
   16.9647    9.4863    8.7426 C   0  0  0  0  0  0  0  0  0  0  0  0
   15.9106    8.8625    9.2534 O   0  0  0  0  0  0  0  0  0  0  0  0
   17.8474   10.1842    9.8346 C   0  0  0  0  0  0  0  0  0  0  0  0
   17.7500   11.5005   10.2970 O   0  0  0  0  0  0  0  0  0  0  0  0
   16.7730   11.6616   11.2711 C   0  0  0  0  0  0  0  0  0  0  0  0
   15.2889   11.4997   10.8876 C   0  0  0  0  0  0  0  0  0  0  0  0
   14.8373   11.6523    9.7583 O   0  0  0  0  0  0  0  0  0  0  0  0
   14.4844   11.1323   11.9562 N   0  0  0  0  0  0  0  0  0  0  0  0
   14.3728   12.1112   13.0368 C   0  0  0  0  0  0  0  0  0  0  0  0
   15.4418   11.9631   14.1168 C   0  0  0  0  0  0  0  0  0  0  0  0
   15.6097   10.5700   14.5332 N   0  0  0  0  0  0  0  0  0  0  0  0
   15.4129    9.5682   13.5817 C   0  0  0  0  0  0  0  0  0  0  0  0
   15.8063    8.2577   13.8426 C   0  0  0  0  0  0  0  0  0  0  0  0
   15.6051    7.2207   12.9164 C   0  0  0  0  0  0  0  0  0  0  0  0
   14.9611    7.4594   11.7204 C   0  0  0  0  0  0  0  0  0  0  0  0
   14.5559    8.7522   11.4584 C   0  0  0  0  0  0  0  0  0  0  0  0
   14.7742    9.7989   12.3684 C   0  0  0  0  0  0  0  0  0  0  0  0
  1  2  2  0
  2  3  1  0
  2  4  1  0
  4  5  1  0
  5  6  1  0
  6  7  1  0
  7  8  2  0
  7  9  1  0
  9 10  1  0
 10 11  1  0
 11 12  1  0
 12 13  1  0
 13 14  2  0
 14 15  1  0
 15 16  2  0
 16 17  1  0
 17 18  2  0
 18  9  1  0
 18 13  1  0
M  END
>  <ref_pdb>  (364) 
c0270a

>  <inchikey>  (364) 
MEIUDYWQVZOFPL-UHFFFAOYSA-N

>  <original ID>  (364) 
MEIUDYWQVZOFPL-UHFFFAOYSA-N

>  <generation_date>  (364) 
None

>  <alias>  (364) 
None

>  <tags>  (364) 
[]

>  <ref_mols>  (364) 
c0692a,c1116a

>  <ref_url>  (364) 
None

>  <submitter_name>  (364) 
None

>  <exports>  (364) 
nan

>  <original SMILES>  (364) 
O=C(O)COCC(=O)N1CCNc2ccccc21

>  <method>  (364) 
None

>  <submitter_email>  (364) 
None

>  <HIPPO ID>  (364) 
113328

$$$$
AIKINYOIJINLCN-VIFPVBQESA-N
     RDKit          3D

 18 18  0  0  0  0  0  0  0  0999 V2000
   14.7827    9.8273    8.5725 C   0  0  0  0  0  0  0  0  0  0  0  0
   16.0473    9.2138    8.9439 N   0  0  0  0  0  0  0  0  0  0  0  0
   16.0039    9.1145   10.3511 C   0  0  0  0  0  0  0  0  0  0  0  0
   15.1557    8.1360   10.8890 C   0  0  0  0  0  0  0  0  0  0  0  0
   14.7058    8.2676   12.1872 C   0  0  0  0  0  0  0  0  0  0  0  0
   15.0499    9.4149   12.8917 C   0  0  0  0  0  0  0  0  0  0  0  0
   14.3066    9.8028   14.5523 Br  0  0  0  0  0  0  0  0  0  0  0  0
   15.9393   10.3524   12.3968 C   0  0  0  0  0  0  0  0  0  0  0  0
   16.4739   10.1771   11.1389 C   0  0  0  0  0  0  0  0  0  0  0  0
   17.5312   10.9764   10.6726 N   0  0  0  0  0  0  0  0  0  0  0  0
   17.9756   12.1297   11.2795 C   0  0  0  0  0  0  0  0  0  0  0  0
   17.2489   12.9070   11.9071 O   0  0  0  0  0  0  0  0  0  0  0  0
   19.4636   12.4408   11.1037 C   0  0  2  0  0  0  0  0  0  0  0  0
   20.0948   11.2771   10.5829 O   0  0  0  0  0  0  0  0  0  0  0  0
   21.5089   11.4011   10.4462 C   0  0  0  0  0  0  0  0  0  0  0  0
   20.0270   13.0902   12.3842 C   0  0  0  0  0  0  0  0  0  0  0  0
   21.1154   12.8106   12.8628 O   0  0  0  0  0  0  0  0  0  0  0  0
   19.2585   14.0727   12.9192 O   0  0  0  0  0  0  0  0  0  0  0  0
  1  2  1  0
  2  3  1  0
  3  4  2  0
  4  5  1  0
  5  6  2  0
  6  7  1  0
  6  8  1  0
  8  9  2  0
  9 10  1  0
 10 11  1  0
 11 12  2  0
 11 13  1  0
 13 14  1  1
 14 15  1  0
 13 16  1  0
 16 17  2  0
 16 18  1  0
  9  3  1  0
M  END
>  <ref_pdb>  (365) 
c0270a

>  <inchikey>  (365) 
AIKINYOIJINLCN-VIFPVBQESA-N

>  <original ID>  (365) 
AIKINYOIJINLCN-VIFPVBQESA-N

>  <generation_date>  (365) 
None

>  <alias>  (365) 
None

>  <tags>  (365) 
[]

>  <ref_mols>  (365) 
c0692a,c1116a

>  <ref_url>  (365) 
None

>  <submitter_name>  (365) 
None

>  <exports>  (365) 
['/opt/xchem-fragalysis-2/maxwin/CHIKV_HIPPO/hippo_prod/CHIKV_prod11_recipes/Recipe_1GERJCJ_poses.sdf']

>  <original SMILES>  (365) 
CNc1ccc(Br)cc1NC(=O)[C@H](OC)C(=O)O

>  <method>  (365) 
None

>  <submitter_email>  (365) 
None

>  <HIPPO ID>  (365) 
113347

$$$$
AIKINYOIJINLCN-SECBINFHSA-N
     RDKit          3D

 18 18  0  0  0  0  0  0  0  0999 V2000
   15.7345    9.0031    8.5728 C   0  0  0  0  0  0  0  0  0  0  0  0
   15.6621   10.2427    9.2639 N   0  0  0  0  0  0  0  0  0  0  0  0
   15.6465    9.9906   10.6368 C   0  0  0  0  0  0  0  0  0  0  0  0
   14.8238    8.9777   11.1577 C   0  0  0  0  0  0  0  0  0  0  0  0
   14.6730    8.8342   12.5153 C   0  0  0  0  0  0  0  0  0  0  0  0
   15.1780    9.8335   13.3175 C   0  0  0  0  0  0  0  0  0  0  0  0
   14.7048    9.9138   15.1046 Br  0  0  0  0  0  0  0  0  0  0  0  0
   16.0264   10.8141   12.8367 C   0  0  0  0  0  0  0  0  0  0  0  0
   16.3507   10.8237   11.4975 C   0  0  0  0  0  0  0  0  0  0  0  0
   17.4709   11.5169   11.0058 N   0  0  0  0  0  0  0  0  0  0  0  0
   18.1503   12.4993   11.6926 C   0  0  0  0  0  0  0  0  0  0  0  0
   17.6310   13.1853   12.5703 O   0  0  0  0  0  0  0  0  0  0  0  0
   19.6281   12.6397   11.3148 C   0  0  1  0  0  0  0  0  0  0  0  0
   19.9933   11.5618   10.4557 O   0  0  0  0  0  0  0  0  0  0  0  0
   21.3761   11.2303   10.5626 C   0  0  0  0  0  0  0  0  0  0  0  0
   19.9389   14.0468   10.8163 C   0  0  0  0  0  0  0  0  0  0  0  0
   19.5775   15.1006   11.3113 O   0  0  0  0  0  0  0  0  0  0  0  0
   20.7320   14.0971    9.7274 O   0  0  0  0  0  0  0  0  0  0  0  0
  1  2  1  0
  2  3  1  0
  3  4  2  0
  4  5  1  0
  5  6  2  0
  6  7  1  0
  6  8  1  0
  8  9  2  0
  9 10  1  0
 10 11  1  0
 11 12  2  0
 11 13  1  0
 13 14  1  6
 14 15  1  0
 13 16  1  0
 16 17  2  0
 16 18  1  0
  9  3  1  0
M  END
>  <ref_pdb>  (366) 
c0270a

>  <inchikey>  (366) 
AIKINYOIJINLCN-SECBINFHSA-N

>  <original ID>  (366) 
AIKINYOIJINLCN-SECBINFHSA-N

>  <generation_date>  (366) 
None

>  <alias>  (366) 
None

>  <tags>  (366) 
[]

>  <ref_mols>  (366) 
c0692a,c1116a

>  <ref_url>  (366) 
None

>  <submitter_name>  (366) 
None

>  <exports>  (366) 
['/opt/xchem-fragalysis-2/maxwin/CHIKV_HIPPO/hippo_prod/CHIKV_prod11_recipes/Recipe_1GERJCJ_poses.sdf']

>  <original SMILES>  (366) 
CNc1ccc(Br)cc1NC(=O)[C@@H](OC)C(=O)O

>  <method>  (366) 
None

>  <submitter_email>  (366) 
None

>  <HIPPO ID>  (366) 
113348

$$$$
ABZULVRYXSGRBG-QMMMGPOBSA-N
     RDKit          3D

 18 18  0  0  0  0  0  0  0  0999 V2000
   21.4954   11.3582   10.3813 C   0  0  0  0  0  0  0  0  0  0  0  0
   20.0986   11.2302   10.6281 O   0  0  0  0  0  0  0  0  0  0  0  0
   19.4789   12.4165   11.1122 C   0  0  2  0  0  0  0  0  0  0  0  0
   19.9736   13.0376   12.4298 C   0  0  0  0  0  0  0  0  0  0  0  0
   19.3447   13.8005   13.1459 O   0  0  0  0  0  0  0  0  0  0  0  0
   21.2304   12.6955   12.7711 O   0  0  0  0  0  0  0  0  0  0  0  0
   17.9656   12.1416   11.2249 C   0  0  0  0  0  0  0  0  0  0  0  0
   17.1824   12.9189   11.7793 O   0  0  0  0  0  0  0  0  0  0  0  0
   17.5088   10.9833   10.6379 N   0  0  0  0  0  0  0  0  0  0  0  0
   16.3527   10.2619   11.0166 C   0  0  0  0  0  0  0  0  0  0  0  0
   15.8215    9.3424   10.0993 C   0  0  0  0  0  0  0  0  0  0  0  0
   16.2809    9.2799    8.7959 N   0  0  0  0  0  0  0  0  0  0  0  0
   14.9708    8.3227   10.5315 C   0  0  0  0  0  0  0  0  0  0  0  0
   14.5672    8.2768   11.8523 C   0  0  0  0  0  0  0  0  0  0  0  0
   14.9443    9.3063   12.7087 C   0  0  0  0  0  0  0  0  0  0  0  0
   14.2414    9.3877   14.4453 Br  0  0  0  0  0  0  0  0  0  0  0  0
   15.8316   10.2943   12.3063 C   0  0  0  0  0  0  0  0  0  0  0  0
   16.2428   11.1885   13.2553 O   0  0  0  0  0  0  0  0  0  0  0  0
  1  2  1  0
  3  2  1  1
  3  4  1  0
  4  5  2  0
  4  6  1  0
  3  7  1  0
  7  8  2  0
  7  9  1  0
  9 10  1  0
 10 11  2  0
 11 12  1  0
 11 13  1  0
 13 14  2  0
 14 15  1  0
 15 16  1  0
 15 17  2  0
 17 18  1  0
 17 10  1  0
M  END
>  <ref_pdb>  (367) 
c0270a

>  <inchikey>  (367) 
ABZULVRYXSGRBG-QMMMGPOBSA-N

>  <original ID>  (367) 
ABZULVRYXSGRBG-QMMMGPOBSA-N

>  <generation_date>  (367) 
None

>  <alias>  (367) 
None

>  <tags>  (367) 
[]

>  <ref_mols>  (367) 
c0692a,c1116a

>  <ref_url>  (367) 
None

>  <submitter_name>  (367) 
None

>  <exports>  (367) 
nan

>  <original SMILES>  (367) 
CO[C@H](C(=O)O)C(=O)Nc1c(N)ccc(Br)c1O

>  <method>  (367) 
None

>  <submitter_email>  (367) 
None

>  <HIPPO ID>  (367) 
113352

$$$$
ABZULVRYXSGRBG-MRVPVSSYSA-N
     RDKit          3D

 18 18  0  0  0  0  0  0  0  0999 V2000
   21.5260   11.3554   10.5094 C   0  0  0  0  0  0  0  0  0  0  0  0
   20.1111   11.4272   10.3474 O   0  0  0  0  0  0  0  0  0  0  0  0
   19.5343   12.4220   11.1857 C   0  0  1  0  0  0  0  0  0  0  0  0
   19.8664   13.8573   10.7917 C   0  0  0  0  0  0  0  0  0  0  0  0
   19.9769   14.3091    9.6614 O   0  0  0  0  0  0  0  0  0  0  0  0
   20.0971   14.6575   11.8485 O   0  0  0  0  0  0  0  0  0  0  0  0
   18.0209   12.1966   11.2889 C   0  0  0  0  0  0  0  0  0  0  0  0
   17.2965   12.9446   11.9516 O   0  0  0  0  0  0  0  0  0  0  0  0
   17.5256   11.0923   10.6202 N   0  0  0  0  0  0  0  0  0  0  0  0
   16.3703   10.3390   10.9494 C   0  0  0  0  0  0  0  0  0  0  0  0
   15.8304    9.4691    9.9802 C   0  0  0  0  0  0  0  0  0  0  0  0
   16.2247    9.5023    8.6477 N   0  0  0  0  0  0  0  0  0  0  0  0
   14.9965    8.4161   10.3592 C   0  0  0  0  0  0  0  0  0  0  0  0
   14.5966    8.2927   11.6781 C   0  0  0  0  0  0  0  0  0  0  0  0
   14.9713    9.2743   12.5910 C   0  0  0  0  0  0  0  0  0  0  0  0
   14.2772    9.2613   14.3366 Br  0  0  0  0  0  0  0  0  0  0  0  0
   15.8507   10.2911   12.2403 C   0  0  0  0  0  0  0  0  0  0  0  0
   16.2433   11.1427   13.2354 O   0  0  0  0  0  0  0  0  0  0  0  0
  1  2  1  0
  3  2  1  6
  3  4  1  0
  4  5  2  0
  4  6  1  0
  3  7  1  0
  7  8  2  0
  7  9  1  0
  9 10  1  0
 10 11  2  0
 11 12  1  0
 11 13  1  0
 13 14  2  0
 14 15  1  0
 15 16  1  0
 15 17  2  0
 17 18  1  0
 17 10  1  0
M  END
>  <ref_pdb>  (368) 
c0270a

>  <inchikey>  (368) 
ABZULVRYXSGRBG-MRVPVSSYSA-N

>  <original ID>  (368) 
ABZULVRYXSGRBG-MRVPVSSYSA-N

>  <generation_date>  (368) 
None

>  <alias>  (368) 
None

>  <tags>  (368) 
[]

>  <ref_mols>  (368) 
c0692a,c1116a

>  <ref_url>  (368) 
None

>  <submitter_name>  (368) 
None

>  <exports>  (368) 
nan

>  <original SMILES>  (368) 
CO[C@@H](C(=O)O)C(=O)Nc1c(N)ccc(Br)c1O

>  <method>  (368) 
None

>  <submitter_email>  (368) 
None

>  <HIPPO ID>  (368) 
113353

$$$$
ZLQRFBZKXWICOT-VIFPVBQESA-N
     RDKit          3D

 18 18  0  0  0  0  0  0  0  0999 V2000
   21.3979   11.3613   10.3696 C   0  0  0  0  0  0  0  0  0  0  0  0
   19.9799   11.2730   10.4935 O   0  0  0  0  0  0  0  0  0  0  0  0
   19.3673   12.4014   11.1241 C   0  0  2  0  0  0  0  0  0  0  0  0
   20.0733   12.9926   12.3442 C   0  0  0  0  0  0  0  0  0  0  0  0
   21.0716   12.5475   12.8845 O   0  0  0  0  0  0  0  0  0  0  0  0
   19.5488   14.1504   12.7879 O   0  0  0  0  0  0  0  0  0  0  0  0
   17.9164   12.0015   11.4570 C   0  0  0  0  0  0  0  0  0  0  0  0
   17.2907   12.5106   12.3856 O   0  0  0  0  0  0  0  0  0  0  0  0
   17.3825   11.0405   10.6103 N   0  0  0  0  0  0  0  0  0  0  0  0
   16.2748   10.2094   10.8715 C   0  0  0  0  0  0  0  0  0  0  0  0
   15.7350   10.0919   12.1390 C   0  0  0  0  0  0  0  0  0  0  0  0
   14.8624    9.0440   12.4529 C   0  0  0  0  0  0  0  0  0  0  0  0
   14.3704    9.0601   13.8586 C   0  0  0  0  0  0  0  0  0  0  0  0
   14.5275    8.1068   11.4668 C   0  0  0  0  0  0  0  0  0  0  0  0
   13.4854    6.5448   11.7627 Br  0  0  0  0  0  0  0  0  0  0  0  0
   14.9542    8.3099   10.1655 C   0  0  0  0  0  0  0  0  0  0  0  0
   15.7859    9.3805    9.8559 C   0  0  0  0  0  0  0  0  0  0  0  0
   16.2579    9.4540    8.5518 N   0  0  0  0  0  0  0  0  0  0  0  0
  1  2  1  0
  3  2  1  1
  3  4  1  0
  4  5  2  0
  4  6  1  0
  3  7  1  0
  7  8  2  0
  7  9  1  0
  9 10  1  0
 10 11  2  0
 11 12  1  0
 12 13  1  0
 12 14  2  0
 14 15  1  0
 14 16  1  0
 16 17  2  0
 17 18  1  0
 17 10  1  0
M  END
>  <ref_pdb>  (369) 
c0270a

>  <inchikey>  (369) 
ZLQRFBZKXWICOT-VIFPVBQESA-N

>  <original ID>  (369) 
ZLQRFBZKXWICOT-VIFPVBQESA-N

>  <generation_date>  (369) 
None

>  <alias>  (369) 
None

>  <tags>  (369) 
[]

>  <ref_mols>  (369) 
c0692a,c1116a

>  <ref_url>  (369) 
None

>  <submitter_name>  (369) 
None

>  <exports>  (369) 
nan

>  <original SMILES>  (369) 
CO[C@H](C(=O)O)C(=O)Nc1cc(C)c(Br)cc1N

>  <method>  (369) 
None

>  <submitter_email>  (369) 
None

>  <HIPPO ID>  (369) 
113356

$$$$
ZLQRFBZKXWICOT-SECBINFHSA-N
     RDKit          3D

 18 18  0  0  0  0  0  0  0  0999 V2000
   21.4345   11.2598   10.5434 C   0  0  0  0  0  0  0  0  0  0  0  0
   20.0344   11.4411   10.3419 O   0  0  0  0  0  0  0  0  0  0  0  0
   19.4784   12.4019   11.2285 C   0  0  1  0  0  0  0  0  0  0  0  0
   19.7266   13.8692   10.8973 C   0  0  0  0  0  0  0  0  0  0  0  0
   19.3401   14.8369   11.5308 O   0  0  0  0  0  0  0  0  0  0  0  0
   20.4980   14.0901    9.8121 O   0  0  0  0  0  0  0  0  0  0  0  0
   17.9852   12.1043   11.4666 C   0  0  0  0  0  0  0  0  0  0  0  0
   17.3362   12.7192   12.3123 O   0  0  0  0  0  0  0  0  0  0  0  0
   17.4637   11.0781   10.6963 N   0  0  0  0  0  0  0  0  0  0  0  0
   16.3238   10.2977   10.9891 C   0  0  0  0  0  0  0  0  0  0  0  0
   15.7431   10.2867   12.2433 C   0  0  0  0  0  0  0  0  0  0  0  0
   14.8621    9.2614   12.6152 C   0  0  0  0  0  0  0  0  0  0  0  0
   14.3274    9.3845   13.9990 C   0  0  0  0  0  0  0  0  0  0  0  0
   14.5676    8.2382   11.7048 C   0  0  0  0  0  0  0  0  0  0  0  0
   13.5648    6.6696   12.0961 Br  0  0  0  0  0  0  0  0  0  0  0  0
   15.0148    8.3469   10.4025 C   0  0  0  0  0  0  0  0  0  0  0  0
   15.8541    9.3945   10.0320 C   0  0  0  0  0  0  0  0  0  0  0  0
   16.3741    9.3552    8.7581 N   0  0  0  0  0  0  0  0  0  0  0  0
  1  2  1  0
  3  2  1  6
  3  4  1  0
  4  5  2  0
  4  6  1  0
  3  7  1  0
  7  8  2  0
  7  9  1  0
  9 10  1  0
 10 11  2  0
 11 12  1  0
 12 13  1  0
 12 14  2  0
 14 15  1  0
 14 16  1  0
 16 17  2  0
 17 18  1  0
 17 10  1  0
M  END
>  <ref_pdb>  (370) 
c0270a

>  <inchikey>  (370) 
ZLQRFBZKXWICOT-SECBINFHSA-N

>  <original ID>  (370) 
ZLQRFBZKXWICOT-SECBINFHSA-N

>  <generation_date>  (370) 
None

>  <alias>  (370) 
None

>  <tags>  (370) 
[]

>  <ref_mols>  (370) 
c0692a,c1116a

>  <ref_url>  (370) 
None

>  <submitter_name>  (370) 
None

>  <exports>  (370) 
nan

>  <original SMILES>  (370) 
CO[C@@H](C(=O)O)C(=O)Nc1cc(C)c(Br)cc1N

>  <method>  (370) 
None

>  <submitter_email>  (370) 
None

>  <HIPPO ID>  (370) 
113357

$$$$
OEYHWPRHGBUHSL-VIFPVBQESA-N
     RDKit          3D

 18 18  0  0  0  0  0  0  0  0999 V2000
   21.5354   11.6355   10.6213 C   0  0  0  0  0  0  0  0  0  0  0  0
   20.2177   11.3920   11.1098 O   0  0  0  0  0  0  0  0  0  0  0  0
   19.4148   12.5574   11.3387 C   0  0  2  0  0  0  0  0  0  0  0  0
   19.9800   13.2433   12.5723 C   0  0  0  0  0  0  0  0  0  0  0  0
   21.0888   13.0437   13.0483 O   0  0  0  0  0  0  0  0  0  0  0  0
   19.2239   14.2038   13.1227 O   0  0  0  0  0  0  0  0  0  0  0  0
   17.8557   12.3087   11.4098 C   0  0  0  0  0  0  0  0  0  0  0  0
   17.1061   13.0927   12.0080 O   0  0  0  0  0  0  0  0  0  0  0  0
   17.3019   11.2615   10.6658 N   0  0  0  0  0  0  0  0  0  0  0  0
   18.1698   10.3571    9.9694 C   0  0  0  0  0  0  0  0  0  0  0  0
   16.0421   10.6211   10.9462 C   0  0  0  0  0  0  0  0  0  0  0  0
   15.4392    9.8819    9.8945 C   0  0  0  0  0  0  0  0  0  0  0  0
   14.7054    8.7321   10.1441 C   0  0  0  0  0  0  0  0  0  0  0  0
   14.4995    8.3637   11.4602 C   0  0  0  0  0  0  0  0  0  0  0  0
   14.8855    9.2376   12.4861 C   0  0  0  0  0  0  0  0  0  0  0  0
   14.3608    8.8670   14.2568 Br  0  0  0  0  0  0  0  0  0  0  0  0
   15.6152   10.4099   12.2583 C   0  0  0  0  0  0  0  0  0  0  0  0
   16.1389   11.1284   13.3605 N   0  0  0  0  0  0  0  0  0  0  0  0
  1  2  1  0
  3  2  1  1
  3  4  1  0
  4  5  2  0
  4  6  1  0
  3  7  1  0
  7  8  2  0
  7  9  1  0
  9 10  1  0
  9 11  1  0
 11 12  2  0
 12 13  1  0
 13 14  2  0
 14 15  1  0
 15 16  1  0
 15 17  2  0
 17 18  1  0
 17 11  1  0
M  END
>  <ref_pdb>  (371) 
c0270a

>  <inchikey>  (371) 
OEYHWPRHGBUHSL-VIFPVBQESA-N

>  <original ID>  (371) 
OEYHWPRHGBUHSL-VIFPVBQESA-N

>  <generation_date>  (371) 
None

>  <alias>  (371) 
None

>  <tags>  (371) 
[]

>  <ref_mols>  (371) 
c0692a,c1116a

>  <ref_url>  (371) 
None

>  <submitter_name>  (371) 
None

>  <exports>  (371) 
nan

>  <original SMILES>  (371) 
CO[C@H](C(=O)O)C(=O)N(C)c1cccc(Br)c1N

>  <method>  (371) 
None

>  <submitter_email>  (371) 
None

>  <HIPPO ID>  (371) 
113358

$$$$
OEYHWPRHGBUHSL-SECBINFHSA-N
     RDKit          3D

 18 18  0  0  0  0  0  0  0  0999 V2000
   21.7053   11.9143   11.0015 C   0  0  0  0  0  0  0  0  0  0  0  0
   20.3548   11.9669   10.5736 O   0  0  0  0  0  0  0  0  0  0  0  0
   19.5031   12.7979   11.3572 C   0  0  1  0  0  0  0  0  0  0  0  0
   19.7376   14.2077   10.8547 C   0  0  0  0  0  0  0  0  0  0  0  0
   20.1161   14.5328    9.7356 O   0  0  0  0  0  0  0  0  0  0  0  0
   19.4839   15.1534   11.7781 O   0  0  0  0  0  0  0  0  0  0  0  0
   17.9529   12.4875   11.3688 C   0  0  0  0  0  0  0  0  0  0  0  0
   17.1712   13.2702   11.9269 O   0  0  0  0  0  0  0  0  0  0  0  0
   17.4833   11.3415   10.7238 N   0  0  0  0  0  0  0  0  0  0  0  0
   18.4404   10.3571   10.3186 C   0  0  0  0  0  0  0  0  0  0  0  0
   16.1959   10.7366   10.9237 C   0  0  0  0  0  0  0  0  0  0  0  0
   15.6814    9.9506    9.8596 C   0  0  0  0  0  0  0  0  0  0  0  0
   14.8730    8.8474   10.0945 C   0  0  0  0  0  0  0  0  0  0  0  0
   14.5640    8.5326   11.4047 C   0  0  0  0  0  0  0  0  0  0  0  0
   14.9224    9.4165   12.4321 C   0  0  0  0  0  0  0  0  0  0  0  0
   14.3604    9.0644   14.1958 Br  0  0  0  0  0  0  0  0  0  0  0  0
   15.6880   10.5675   12.2146 C   0  0  0  0  0  0  0  0  0  0  0  0
   16.1835   11.2987   13.3253 N   0  0  0  0  0  0  0  0  0  0  0  0
  1  2  1  0
  3  2  1  6
  3  4  1  0
  4  5  2  0
  4  6  1  0
  3  7  1  0
  7  8  2  0
  7  9  1  0
  9 10  1  0
  9 11  1  0
 11 12  2  0
 12 13  1  0
 13 14  2  0
 14 15  1  0
 15 16  1  0
 15 17  2  0
 17 18  1  0
 17 11  1  0
M  END
>  <ref_pdb>  (372) 
c0270a

>  <inchikey>  (372) 
OEYHWPRHGBUHSL-SECBINFHSA-N

>  <original ID>  (372) 
OEYHWPRHGBUHSL-SECBINFHSA-N

>  <generation_date>  (372) 
None

>  <alias>  (372) 
None

>  <tags>  (372) 
[]

>  <ref_mols>  (372) 
c0692a,c1116a

>  <ref_url>  (372) 
None

>  <submitter_name>  (372) 
None

>  <exports>  (372) 
nan

>  <original SMILES>  (372) 
CO[C@@H](C(=O)O)C(=O)N(C)c1cccc(Br)c1N

>  <method>  (372) 
None

>  <submitter_email>  (372) 
None

>  <HIPPO ID>  (372) 
113359

$$$$
GSROXVPFZXGRTG-QMMMGPOBSA-N
     RDKit          3D

 18 18  0  0  0  0  0  0  0  0999 V2000
   21.6683   11.4673   10.2906 C   0  0  0  0  0  0  0  0  0  0  0  0
   20.2508   11.4041   10.4312 O   0  0  0  0  0  0  0  0  0  0  0  0
   19.6823   12.5423   11.0896 C   0  0  2  0  0  0  0  0  0  0  0  0
   20.3327   12.9488   12.4061 C   0  0  0  0  0  0  0  0  0  0  0  0
   21.3018   12.4148   12.9192 O   0  0  0  0  0  0  0  0  0  0  0  0
   19.7943   14.0279   13.0021 O   0  0  0  0  0  0  0  0  0  0  0  0
   18.1893   12.2650   11.2856 C   0  0  0  0  0  0  0  0  0  0  0  0
   17.4416   13.0216   11.9097 O   0  0  0  0  0  0  0  0  0  0  0  0
   17.7446   11.1146   10.6704 N   0  0  0  0  0  0  0  0  0  0  0  0
   16.5626   10.4246   10.9612 C   0  0  0  0  0  0  0  0  0  0  0  0
   16.0081    9.6733    9.9246 C   0  0  0  0  0  0  0  0  0  0  0  0
   14.9332    8.8494   10.1909 C   0  0  0  0  0  0  0  0  0  0  0  0
   13.7487    8.3907    8.8215 Br  0  0  0  0  0  0  0  0  0  0  0  0
   14.5473    8.5925   11.4871 C   0  0  0  0  0  0  0  0  0  0  0  0
   14.9684    9.4786   12.4582 C   0  0  0  0  0  0  0  0  0  0  0  0
   14.2552    9.5562   13.6193 O   0  0  0  0  0  0  0  0  0  0  0  0
   15.9676   10.4167   12.2339 C   0  0  0  0  0  0  0  0  0  0  0  0
   16.4779   11.1214   13.3420 N   0  0  0  0  0  0  0  0  0  0  0  0
  1  2  1  0
  3  2  1  1
  3  4  1  0
  4  5  2  0
  4  6  1  0
  3  7  1  0
  7  8  2  0
  7  9  1  0
  9 10  1  0
 10 11  2  0
 11 12  1  0
 12 13  1  0
 12 14  2  0
 14 15  1  0
 15 16  1  0
 15 17  2  0
 17 18  1  0
 17 10  1  0
M  END
>  <ref_pdb>  (373) 
c0270a

>  <inchikey>  (373) 
GSROXVPFZXGRTG-QMMMGPOBSA-N

>  <original ID>  (373) 
GSROXVPFZXGRTG-QMMMGPOBSA-N

>  <generation_date>  (373) 
None

>  <alias>  (373) 
None

>  <tags>  (373) 
[]

>  <ref_mols>  (373) 
c0692a,c1116a

>  <ref_url>  (373) 
None

>  <submitter_name>  (373) 
None

>  <exports>  (373) 
nan

>  <original SMILES>  (373) 
CO[C@H](C(=O)O)C(=O)Nc1cc(Br)cc(O)c1N

>  <method>  (373) 
None

>  <submitter_email>  (373) 
None

>  <HIPPO ID>  (373) 
113360

$$$$
GSROXVPFZXGRTG-MRVPVSSYSA-N
     RDKit          3D

 18 18  0  0  0  0  0  0  0  0999 V2000
   21.6607   11.4539   10.5348 C   0  0  0  0  0  0  0  0  0  0  0  0
   20.2447   11.5302   10.4077 O   0  0  0  0  0  0  0  0  0  0  0  0
   19.6887   12.5577   11.2282 C   0  0  1  0  0  0  0  0  0  0  0  0
   19.9368   13.9707   10.7208 C   0  0  0  0  0  0  0  0  0  0  0  0
   20.1418   14.3112    9.5638 O   0  0  0  0  0  0  0  0  0  0  0  0
   19.9127   14.8986   11.6960 O   0  0  0  0  0  0  0  0  0  0  0  0
   18.1884   12.3119   11.3685 C   0  0  0  0  0  0  0  0  0  0  0  0
   17.4548   13.0745   12.0012 O   0  0  0  0  0  0  0  0  0  0  0  0
   17.7402   11.1741   10.7325 N   0  0  0  0  0  0  0  0  0  0  0  0
   16.5538   10.4806   11.0039 C   0  0  0  0  0  0  0  0  0  0  0  0
   16.0175    9.7239    9.9596 C   0  0  0  0  0  0  0  0  0  0  0  0
   14.9485    8.8868   10.2113 C   0  0  0  0  0  0  0  0  0  0  0  0
   13.7802    8.4125    8.8317 Br  0  0  0  0  0  0  0  0  0  0  0  0
   14.5566    8.6203   11.5031 C   0  0  0  0  0  0  0  0  0  0  0  0
   14.9564    9.5097   12.4808 C   0  0  0  0  0  0  0  0  0  0  0  0
   14.2397    9.5575   13.6406 O   0  0  0  0  0  0  0  0  0  0  0  0
   15.9395   10.4683   12.2676 C   0  0  0  0  0  0  0  0  0  0  0  0
   16.4203   11.1854   13.3801 N   0  0  0  0  0  0  0  0  0  0  0  0
  1  2  1  0
  3  2  1  6
  3  4  1  0
  4  5  2  0
  4  6  1  0
  3  7  1  0
  7  8  2  0
  7  9  1  0
  9 10  1  0
 10 11  2  0
 11 12  1  0
 12 13  1  0
 12 14  2  0
 14 15  1  0
 15 16  1  0
 15 17  2  0
 17 18  1  0
 17 10  1  0
M  END
>  <ref_pdb>  (374) 
c0270a

>  <inchikey>  (374) 
GSROXVPFZXGRTG-MRVPVSSYSA-N

>  <original ID>  (374) 
GSROXVPFZXGRTG-MRVPVSSYSA-N

>  <generation_date>  (374) 
None

>  <alias>  (374) 
None

>  <tags>  (374) 
[]

>  <ref_mols>  (374) 
c0692a,c1116a

>  <ref_url>  (374) 
None

>  <submitter_name>  (374) 
None

>  <exports>  (374) 
nan

>  <original SMILES>  (374) 
CO[C@@H](C(=O)O)C(=O)Nc1cc(Br)cc(O)c1N

>  <method>  (374) 
None

>  <submitter_email>  (374) 
None

>  <HIPPO ID>  (374) 
113361

$$$$
YDZWGVIJHLMRMY-SNVBAGLBSA-N
     RDKit          3D

 18 19  0  0  0  0  0  0  0  0999 V2000
   12.3931   13.0003   10.9117 C   0  0  0  0  0  0  0  0  0  0  0  0
   12.7319   13.1454   12.2824 O   0  0  0  0  0  0  0  0  0  0  0  0
   14.0892   13.3620   12.5835 C   0  0  1  0  0  0  0  0  0  0  0  0
   14.1950   13.4338   14.0834 C   0  0  0  0  0  0  0  0  0  0  0  0
   13.8727   12.5970   14.9093 O   0  0  0  0  0  0  0  0  0  0  0  0
   14.7169   14.6096   14.5047 O   0  0  0  0  0  0  0  0  0  0  0  0
   14.8452   12.2934   11.8844 C   0  0  0  0  0  0  0  0  0  0  0  0
   14.8258   12.2827   10.6503 O   0  0  0  0  0  0  0  0  0  0  0  0
   15.5109   11.3378   12.6596 N   0  0  0  0  0  0  0  0  0  0  0  0
   16.8368   11.8401   12.9736 C   0  0  0  0  0  0  0  0  0  0  0  0
   17.7131   12.0146   11.7186 C   0  0  0  0  0  0  0  0  0  0  0  0
   17.6709   10.8519   10.8397 N   0  0  0  0  0  0  0  0  0  0  0  0
   16.4963   10.0854   10.8526 C   0  0  0  0  0  0  0  0  0  0  0  0
   16.1913    9.2114    9.8266 C   0  0  0  0  0  0  0  0  0  0  0  0
   15.1776    8.2704    9.9783 C   0  0  0  0  0  0  0  0  0  0  0  0
   14.5330    8.1250   11.1938 C   0  0  0  0  0  0  0  0  0  0  0  0
   14.7445    9.0711   12.1867 C   0  0  0  0  0  0  0  0  0  0  0  0
   15.6358   10.1027   11.9507 C   0  0  0  0  0  0  0  0  0  0  0  0
  1  2  1  0
  3  2  1  1
  3  4  1  0
  4  5  2  0
  4  6  1  0
  3  7  1  0
  7  8  2  0
  7  9  1  0
  9 10  1  0
 10 11  1  0
 11 12  1  0
 12 13  1  0
 13 14  2  0
 14 15  1  0
 15 16  2  0
 16 17  1  0
 17 18  2  0
 18  9  1  0
 18 13  1  0
M  END
>  <ref_pdb>  (375) 
c0270a

>  <inchikey>  (375) 
YDZWGVIJHLMRMY-SNVBAGLBSA-N

>  <original ID>  (375) 
YDZWGVIJHLMRMY-SNVBAGLBSA-N

>  <generation_date>  (375) 
None

>  <alias>  (375) 
None

>  <tags>  (375) 
[]

>  <ref_mols>  (375) 
c0692a,c1116a

>  <ref_url>  (375) 
None

>  <submitter_name>  (375) 
None

>  <exports>  (375) 
nan

>  <original SMILES>  (375) 
CO[C@@H](C(=O)O)C(=O)N1CCNc2ccccc21

>  <method>  (375) 
None

>  <submitter_email>  (375) 
None

>  <HIPPO ID>  (375) 
113382

$$$$
IWWPOOGCKHEVDC-UHFFFAOYSA-N
     RDKit          3D

 18 18  0  0  0  0  0  0  0  0999 V2000
   14.3768    9.8238   14.1455 C   0  0  0  0  0  0  0  0  0  0  0  0
   14.9171    9.5950   12.7823 C   0  0  0  0  0  0  0  0  0  0  0  0
   14.5318    8.5302   11.9738 C   0  0  0  0  0  0  0  0  0  0  0  0
   14.8319    8.5411   10.6130 C   0  0  0  0  0  0  0  0  0  0  0  0
   14.1095    7.5706    9.7216 C   0  0  0  0  0  0  0  0  0  0  0  0
   15.7683    9.4706   10.1375 C   0  0  0  0  0  0  0  0  0  0  0  0
   16.2677    9.3431    8.8516 N   0  0  0  0  0  0  0  0  0  0  0  0
   16.3374   10.3963   11.0287 C   0  0  0  0  0  0  0  0  0  0  0  0
   17.4954   11.1087   10.6690 N   0  0  0  0  0  0  0  0  0  0  0  0
   17.9811   12.2133   11.3391 C   0  0  0  0  0  0  0  0  0  0  0  0
   17.2976   12.9736   12.0262 O   0  0  0  0  0  0  0  0  0  0  0  0
   19.4672   12.4824   11.1514 C   0  0  0  0  0  0  0  0  0  0  0  0
   20.1670   11.2925   10.8258 O   0  0  0  0  0  0  0  0  0  0  0  0
   21.5761   11.4528   10.9658 C   0  0  0  0  0  0  0  0  0  0  0  0
   22.2256   12.0993    9.7601 C   0  0  0  0  0  0  0  0  0  0  0  0
   22.0698   13.2475    9.3832 O   0  0  0  0  0  0  0  0  0  0  0  0
   22.9090   11.2103    9.0498 O   0  0  0  0  0  0  0  0  0  0  0  0
   15.8226   10.5234   12.3057 C   0  0  0  0  0  0  0  0  0  0  0  0
  1  2  1  0
  2  3  2  0
  3  4  1  0
  4  5  1  0
  4  6  2  0
  6  7  1  0
  6  8  1  0
  8  9  1  0
  9 10  1  0
 10 11  2  0
 10 12  1  0
 12 13  1  0
 13 14  1  0
 14 15  1  0
 15 16  2  0
 15 17  1  0
  8 18  2  0
 18  2  1  0
M  END
>  <ref_pdb>  (376) 
c0270a

>  <inchikey>  (376) 
IWWPOOGCKHEVDC-UHFFFAOYSA-N

>  <original ID>  (376) 
IWWPOOGCKHEVDC-UHFFFAOYSA-N

>  <generation_date>  (376) 
None

>  <alias>  (376) 
None

>  <tags>  (376) 
[]

>  <ref_mols>  (376) 
c0692a,c1116a

>  <ref_url>  (376) 
None

>  <submitter_name>  (376) 
None

>  <exports>  (376) 
nan

>  <original SMILES>  (376) 
Cc1cc(C)c(N)c(NC(=O)COCC(=O)O)c1

>  <method>  (376) 
None

>  <submitter_email>  (376) 
None

>  <HIPPO ID>  (376) 
113391

$$$$
ZWVZWBUSKJMMNB-UHFFFAOYSA-N
     RDKit          3D

 18 18  0  0  0  0  0  0  0  0999 V2000
   13.1935    9.1924    9.0207 C   0  0  0  0  0  0  0  0  0  0  0  0
   14.3650    9.7936    9.7262 C   0  0  0  0  0  0  0  0  0  0  0  0
   15.5578    9.1531    9.5206 C   0  0  0  0  0  0  0  0  0  0  0  0
   16.6912    9.6806   10.0858 C   0  0  0  0  0  0  0  0  0  0  0  0
   16.6823   10.7570   10.9539 C   0  0  0  0  0  0  0  0  0  0  0  0
   17.9552   11.2446   11.2420 N   0  0  0  0  0  0  0  0  0  0  0  0
   18.3034   12.5130   11.6290 C   0  0  0  0  0  0  0  0  0  0  0  0
   17.5591   13.3696   12.0918 O   0  0  0  0  0  0  0  0  0  0  0  0
   19.7941   12.7530   11.3945 C   0  0  0  0  0  0  0  0  0  0  0  0
   20.3245   11.6775   10.6012 O   0  0  0  0  0  0  0  0  0  0  0  0
   21.7313   11.8082   10.3925 C   0  0  0  0  0  0  0  0  0  0  0  0
   22.5517   11.4981   11.6246 C   0  0  0  0  0  0  0  0  0  0  0  0
   22.2050   10.8248   12.5788 O   0  0  0  0  0  0  0  0  0  0  0  0
   23.7536   12.0991   11.6260 O   0  0  0  0  0  0  0  0  0  0  0  0
   15.4822   11.3177   11.3213 C   0  0  0  0  0  0  0  0  0  0  0  0
   15.3146   12.1114   12.4715 N   0  0  0  0  0  0  0  0  0  0  0  0
   14.3625   10.8878   10.6136 C   0  0  0  0  0  0  0  0  0  0  0  0
   13.2809   11.6628   10.7688 F   0  0  0  0  0  0  0  0  0  0  0  0
  1  2  1  0
  2  3  2  0
  3  4  1  0
  4  5  2  0
  5  6  1  0
  6  7  1  0
  7  8  2  0
  7  9  1  0
  9 10  1  0
 10 11  1  0
 11 12  1  0
 12 13  2  0
 12 14  1  0
  5 15  1  0
 15 16  1  0
 15 17  2  0
 17 18  1  0
 17  2  1  0
M  END
>  <ref_pdb>  (377) 
c0270a

>  <inchikey>  (377) 
ZWVZWBUSKJMMNB-UHFFFAOYSA-N

>  <original ID>  (377) 
ZWVZWBUSKJMMNB-UHFFFAOYSA-N

>  <generation_date>  (377) 
None

>  <alias>  (377) 
None

>  <tags>  (377) 
[]

>  <ref_mols>  (377) 
c0692a,c1116a

>  <ref_url>  (377) 
None

>  <submitter_name>  (377) 
None

>  <exports>  (377) 
nan

>  <original SMILES>  (377) 
Cc1ccc(NC(=O)COCC(=O)O)c(N)c1F

>  <method>  (377) 
None

>  <submitter_email>  (377) 
None

>  <HIPPO ID>  (377) 
113393

$$$$
KRZFZDSZHOMBNJ-UHFFFAOYSA-N
     RDKit          3D

 18 18  0  0  0  0  0  0  0  0999 V2000
   16.1306   10.9298   13.1771 N   0  0  0  0  0  0  0  0  0  0  0  0
   15.7204   10.1695   12.0551 C   0  0  0  0  0  0  0  0  0  0  0  0
   14.8008    9.1507   12.2909 C   0  0  0  0  0  0  0  0  0  0  0  0
   14.1836    9.1718   13.4752 F   0  0  0  0  0  0  0  0  0  0  0  0
   14.4444    8.1955   11.3426 C   0  0  0  0  0  0  0  0  0  0  0  0
   14.9452    8.3151   10.0656 C   0  0  0  0  0  0  0  0  0  0  0  0
   15.9024    9.2878    9.8173 C   0  0  0  0  0  0  0  0  0  0  0  0
   16.4216    9.3319    8.5894 F   0  0  0  0  0  0  0  0  0  0  0  0
   16.3559   10.1748   10.8104 C   0  0  0  0  0  0  0  0  0  0  0  0
   17.5155   10.9270   10.5305 N   0  0  0  0  0  0  0  0  0  0  0  0
   17.9402   12.0586   11.1846 C   0  0  0  0  0  0  0  0  0  0  0  0
   17.2004   12.8186   11.8157 O   0  0  0  0  0  0  0  0  0  0  0  0
   19.4297   12.3608   11.0661 C   0  0  0  0  0  0  0  0  0  0  0  0
   20.1953   11.2101   10.7506 O   0  0  0  0  0  0  0  0  0  0  0  0
   21.5956   11.4461   10.6466 C   0  0  0  0  0  0  0  0  0  0  0  0
   22.3313   12.1840   11.7652 C   0  0  0  0  0  0  0  0  0  0  0  0
   21.8459   12.9125   12.6131 O   0  0  0  0  0  0  0  0  0  0  0  0
   23.6670   12.0163   11.7290 O   0  0  0  0  0  0  0  0  0  0  0  0
  1  2  1  0
  2  3  2  0
  3  4  1  0
  3  5  1  0
  5  6  2  0
  6  7  1  0
  7  8  1  0
  7  9  2  0
  9 10  1  0
 10 11  1  0
 11 12  2  0
 11 13  1  0
 13 14  1  0
 14 15  1  0
 15 16  1  0
 16 17  2  0
 16 18  1  0
  9  2  1  0
M  END
>  <ref_pdb>  (378) 
c0270a

>  <inchikey>  (378) 
KRZFZDSZHOMBNJ-UHFFFAOYSA-N

>  <original ID>  (378) 
KRZFZDSZHOMBNJ-UHFFFAOYSA-N

>  <generation_date>  (378) 
None

>  <alias>  (378) 
None

>  <tags>  (378) 
[]

>  <ref_mols>  (378) 
c0692a,c1116a

>  <ref_url>  (378) 
None

>  <submitter_name>  (378) 
None

>  <exports>  (378) 
nan

>  <original SMILES>  (378) 
Nc1c(F)ccc(F)c1NC(=O)COCC(=O)O

>  <method>  (378) 
None

>  <submitter_email>  (378) 
None

>  <HIPPO ID>  (378) 
113400

$$$$
SRZPFJCZOPWMDC-VIFPVBQESA-N
     RDKit          3D

 18 18  0  0  0  0  0  0  0  0999 V2000
   21.6155   11.4162   10.2933 C   0  0  0  0  0  0  0  0  0  0  0  0
   20.1982   11.3235   10.4187 O   0  0  0  0  0  0  0  0  0  0  0  0
   19.5950   12.4498   11.0644 C   0  0  2  0  0  0  0  0  0  0  0  0
   20.2330   12.8892   12.3801 C   0  0  0  0  0  0  0  0  0  0  0  0
   21.2721   12.4548   12.8512 O   0  0  0  0  0  0  0  0  0  0  0  0
   19.5964   13.8811   13.0270 O   0  0  0  0  0  0  0  0  0  0  0  0
   18.0957   12.1526   11.2256 C   0  0  0  0  0  0  0  0  0  0  0  0
   17.3333   12.9020   11.8400 O   0  0  0  0  0  0  0  0  0  0  0  0
   17.6654   11.0148   10.5726 N   0  0  0  0  0  0  0  0  0  0  0  0
   16.4775   10.2911   10.7836 C   0  0  0  0  0  0  0  0  0  0  0  0
   16.0565    9.4704    9.7261 C   0  0  0  0  0  0  0  0  0  0  0  0
   15.0371    8.5491    9.8994 C   0  0  0  0  0  0  0  0  0  0  0  0
   14.5214    8.3702   11.1631 C   0  0  0  0  0  0  0  0  0  0  0  0
   13.6010    7.4091   11.3369 F   0  0  0  0  0  0  0  0  0  0  0  0
   14.9083    9.1929   12.2309 C   0  0  0  0  0  0  0  0  0  0  0  0
   14.3839    8.9659   13.6075 C   0  0  0  0  0  0  0  0  0  0  0  0
   15.8057   10.2480   12.0192 C   0  0  0  0  0  0  0  0  0  0  0  0
   16.2061   11.0217   13.1373 N   0  0  0  0  0  0  0  0  0  0  0  0
  1  2  1  0
  3  2  1  1
  3  4  1  0
  4  5  2  0
  4  6  1  0
  3  7  1  0
  7  8  2  0
  7  9  1  0
  9 10  1  0
 10 11  2  0
 11 12  1  0
 12 13  2  0
 13 14  1  0
 13 15  1  0
 15 16  1  0
 15 17  2  0
 17 18  1  0
 17 10  1  0
M  END
>  <ref_pdb>  (379) 
c0270a

>  <inchikey>  (379) 
SRZPFJCZOPWMDC-VIFPVBQESA-N

>  <original ID>  (379) 
SRZPFJCZOPWMDC-VIFPVBQESA-N

>  <generation_date>  (379) 
None

>  <alias>  (379) 
None

>  <tags>  (379) 
[]

>  <ref_mols>  (379) 
c0692a,c1116a

>  <ref_url>  (379) 
None

>  <submitter_name>  (379) 
None

>  <exports>  (379) 
['/opt/xchem-fragalysis-2/maxwin/CHIKV_HIPPO/hippo_prod/CHIKV_prod11_recipes/Recipe_1GERJCJ_poses.sdf']

>  <original SMILES>  (379) 
CO[C@H](C(=O)O)C(=O)Nc1ccc(F)c(C)c1N

>  <method>  (379) 
None

>  <submitter_email>  (379) 
None

>  <HIPPO ID>  (379) 
113428

$$$$
SRZPFJCZOPWMDC-SECBINFHSA-N
     RDKit          3D

 18 18  0  0  0  0  0  0  0  0999 V2000
   21.6536   11.4140   10.5291 C   0  0  0  0  0  0  0  0  0  0  0  0
   20.2406   11.4720   10.3653 O   0  0  0  0  0  0  0  0  0  0  0  0
   19.6480   12.4631   11.2014 C   0  0  1  0  0  0  0  0  0  0  0  0
   19.9577   13.8957   10.7847 C   0  0  0  0  0  0  0  0  0  0  0  0
   19.9753   14.3531    9.6513 O   0  0  0  0  0  0  0  0  0  0  0  0
   20.2950   14.6857   11.8211 O   0  0  0  0  0  0  0  0  0  0  0  0
   18.1381   12.2249   11.2805 C   0  0  0  0  0  0  0  0  0  0  0  0
   17.3977   12.9888   11.9037 O   0  0  0  0  0  0  0  0  0  0  0  0
   17.7039   11.0930   10.6179 N   0  0  0  0  0  0  0  0  0  0  0  0
   16.5140   10.3651   10.8141 C   0  0  0  0  0  0  0  0  0  0  0  0
   16.1119    9.5316    9.7577 C   0  0  0  0  0  0  0  0  0  0  0  0
   15.0936    8.6061    9.9199 C   0  0  0  0  0  0  0  0  0  0  0  0
   14.5577    8.4347   11.1755 C   0  0  0  0  0  0  0  0  0  0  0  0
   13.6428    7.4671   11.3427 F   0  0  0  0  0  0  0  0  0  0  0  0
   14.9265    9.2664   12.2430 C   0  0  0  0  0  0  0  0  0  0  0  0
   14.3849    9.0450   13.6139 C   0  0  0  0  0  0  0  0  0  0  0  0
   15.8239   10.3247   12.0385 C   0  0  0  0  0  0  0  0  0  0  0  0
   16.2059   11.1050   13.1580 N   0  0  0  0  0  0  0  0  0  0  0  0
  1  2  1  0
  3  2  1  6
  3  4  1  0
  4  5  2  0
  4  6  1  0
  3  7  1  0
  7  8  2  0
  7  9  1  0
  9 10  1  0
 10 11  2  0
 11 12  1  0
 12 13  2  0
 13 14  1  0
 13 15  1  0
 15 16  1  0
 15 17  2  0
 17 18  1  0
 17 10  1  0
M  END
>  <ref_pdb>  (380) 
c0270a

>  <inchikey>  (380) 
SRZPFJCZOPWMDC-SECBINFHSA-N

>  <original ID>  (380) 
SRZPFJCZOPWMDC-SECBINFHSA-N

>  <generation_date>  (380) 
None

>  <alias>  (380) 
None

>  <tags>  (380) 
[]

>  <ref_mols>  (380) 
c0692a,c1116a

>  <ref_url>  (380) 
None

>  <submitter_name>  (380) 
None

>  <exports>  (380) 
['/opt/xchem-fragalysis-2/maxwin/CHIKV_HIPPO/hippo_prod/CHIKV_prod11_recipes/Recipe_1GERJCJ_poses.sdf']

>  <original SMILES>  (380) 
CO[C@@H](C(=O)O)C(=O)Nc1ccc(F)c(C)c1N

>  <method>  (380) 
None

>  <submitter_email>  (380) 
None

>  <HIPPO ID>  (380) 
113429

$$$$
QRZOJAWCKGSBOT-UHFFFAOYSA-N
     RDKit          3D

 18 19  0  0  0  0  0  0  0  0999 V2000
   13.3743   14.8733   17.0407 C   0  0  0  0  0  0  0  0  0  0  0  0
   14.4633   14.6250   16.6021 C   0  0  0  0  0  0  0  0  0  0  0  0
   15.8137   14.3761   16.0811 C   0  0  0  0  0  0  0  0  0  0  0  0
   15.9390   14.7383   14.6036 C   0  0  0  0  0  0  0  0  0  0  0  0
   15.6837   13.6007   13.7832 O   0  0  0  0  0  0  0  0  0  0  0  0
   14.4224   13.6726   13.1376 C   0  0  0  0  0  0  0  0  0  0  0  0
   14.1754   12.5540   12.1373 C   0  0  0  0  0  0  0  0  0  0  0  0
   13.5237   12.7858   11.1238 O   0  0  0  0  0  0  0  0  0  0  0  0
   14.6899   11.3189   12.5025 N   0  0  0  0  0  0  0  0  0  0  0  0
   14.7356   10.9351   13.9175 C   0  0  0  0  0  0  0  0  0  0  0  0
   16.0008   10.1575   14.1815 C   0  0  0  0  0  0  0  0  0  0  0  0
   15.9846    8.9071   13.4343 N   0  0  0  0  0  0  0  0  0  0  0  0
   15.4223    9.0154   12.1387 C   0  0  0  0  0  0  0  0  0  0  0  0
   15.3978    7.8700   11.3481 C   0  0  0  0  0  0  0  0  0  0  0  0
   14.8967    7.9140   10.0533 C   0  0  0  0  0  0  0  0  0  0  0  0
   14.5488    9.1193    9.4784 C   0  0  0  0  0  0  0  0  0  0  0  0
   14.5888   10.2728   10.2495 C   0  0  0  0  0  0  0  0  0  0  0  0
   14.9191   10.2231   11.6062 C   0  0  0  0  0  0  0  0  0  0  0  0
  1  2  3  0
  2  3  1  0
  3  4  1  0
  4  5  1  0
  5  6  1  0
  6  7  1  0
  7  8  2  0
  7  9  1  0
  9 10  1  0
 10 11  1  0
 11 12  1  0
 12 13  1  0
 13 14  2  0
 14 15  1  0
 15 16  2  0
 16 17  1  0
 17 18  2  0
 18  9  1  0
 18 13  1  0
M  END
>  <ref_pdb>  (381) 
c0270a

>  <inchikey>  (381) 
QRZOJAWCKGSBOT-UHFFFAOYSA-N

>  <original ID>  (381) 
QRZOJAWCKGSBOT-UHFFFAOYSA-N

>  <generation_date>  (381) 
None

>  <alias>  (381) 
None

>  <tags>  (381) 
[]

>  <ref_mols>  (381) 
c0692a,c1116a

>  <ref_url>  (381) 
None

>  <submitter_name>  (381) 
None

>  <exports>  (381) 
nan

>  <original SMILES>  (381) 
C#CCCOCC(=O)N1CCNc2ccccc21

>  <method>  (381) 
None

>  <submitter_email>  (381) 
None

>  <HIPPO ID>  (381) 
113431

$$$$
YFQOLVILWBTSKO-UHFFFAOYSA-N
     RDKit          3D

 18 18  0  0  0  0  0  0  0  0999 V2000
   21.1997   10.2232    9.6718 C   0  0  0  0  0  0  0  0  0  0  0  0
   21.9035   11.1418    9.9466 C   0  0  0  0  0  0  0  0  0  0  0  0
   22.2759   12.5077   10.2145 C   0  0  0  0  0  0  0  0  0  0  0  0
   21.1743   13.0499   11.1246 C   0  0  0  0  0  0  0  0  0  0  0  0
   19.8573   12.6371   10.6695 O   0  0  0  0  0  0  0  0  0  0  0  0
   18.8881   12.9649   11.6305 C   0  0  0  0  0  0  0  0  0  0  0  0
   17.5289   12.2598   11.6342 C   0  0  0  0  0  0  0  0  0  0  0  0
   16.6725   12.6875   12.4126 O   0  0  0  0  0  0  0  0  0  0  0  0
   17.3437   11.1738   10.7987 N   0  0  0  0  0  0  0  0  0  0  0  0
   16.2943   10.2297   10.9620 C   0  0  0  0  0  0  0  0  0  0  0  0
   15.7394   10.0223   12.2181 C   0  0  0  0  0  0  0  0  0  0  0  0
   14.8631    8.9613   12.4745 C   0  0  0  0  0  0  0  0  0  0  0  0
   14.3474    8.9176   13.8702 C   0  0  0  0  0  0  0  0  0  0  0  0
   14.5437    8.0734   11.4451 C   0  0  0  0  0  0  0  0  0  0  0  0
   13.4744    6.5164   11.6489 Br  0  0  0  0  0  0  0  0  0  0  0  0
   15.0125    8.3285   10.1687 C   0  0  0  0  0  0  0  0  0  0  0  0
   15.8511    9.4150    9.9138 C   0  0  0  0  0  0  0  0  0  0  0  0
   16.3265    9.5111    8.6147 N   0  0  0  0  0  0  0  0  0  0  0  0
  1  2  3  0
  2  3  1  0
  3  4  1  0
  4  5  1  0
  5  6  1  0
  6  7  1  0
  7  8  2  0
  7  9  1  0
  9 10  1  0
 10 11  2  0
 11 12  1  0
 12 13  1  0
 12 14  2  0
 14 15  1  0
 14 16  1  0
 16 17  2  0
 17 18  1  0
 17 10  1  0
M  END
>  <ref_pdb>  (382) 
c0270a

>  <inchikey>  (382) 
YFQOLVILWBTSKO-UHFFFAOYSA-N

>  <original ID>  (382) 
YFQOLVILWBTSKO-UHFFFAOYSA-N

>  <generation_date>  (382) 
None

>  <alias>  (382) 
None

>  <tags>  (382) 
[]

>  <ref_mols>  (382) 
c0692a,c1116a

>  <ref_url>  (382) 
None

>  <submitter_name>  (382) 
None

>  <exports>  (382) 
nan

>  <original SMILES>  (382) 
C#CCCOCC(=O)Nc1cc(C)c(Br)cc1N

>  <method>  (382) 
None

>  <submitter_email>  (382) 
None

>  <HIPPO ID>  (382) 
113433

$$$$
NYNFKEMDNOXRJR-UHFFFAOYSA-N
     RDKit          3D

 18 18  0  0  0  0  0  0  0  0999 V2000
   22.3173   12.9777   13.5689 C   0  0  0  0  0  0  0  0  0  0  0  0
   22.3329   12.2424   12.6217 C   0  0  0  0  0  0  0  0  0  0  0  0
   22.4026   11.3388   11.4737 C   0  0  0  0  0  0  0  0  0  0  0  0
   21.4989   11.7449   10.3259 C   0  0  0  0  0  0  0  0  0  0  0  0
   20.1191   11.4284   10.5445 O   0  0  0  0  0  0  0  0  0  0  0  0
   19.4080   12.4872   11.1730 C   0  0  0  0  0  0  0  0  0  0  0  0
   17.9356   12.1400   11.3564 C   0  0  0  0  0  0  0  0  0  0  0  0
   17.2117   12.8244   12.0799 O   0  0  0  0  0  0  0  0  0  0  0  0
   17.5200   11.0584   10.6187 N   0  0  0  0  0  0  0  0  0  0  0  0
   16.3671   10.2742   10.7811 C   0  0  0  0  0  0  0  0  0  0  0  0
   16.0097    9.4714    9.6891 C   0  0  0  0  0  0  0  0  0  0  0  0
   15.0445    8.4776    9.8032 C   0  0  0  0  0  0  0  0  0  0  0  0
   14.5236    8.1804   11.0433 C   0  0  0  0  0  0  0  0  0  0  0  0
   13.5001    6.5931   11.2137 Br  0  0  0  0  0  0  0  0  0  0  0  0
   14.8196    9.0327   12.1043 C   0  0  0  0  0  0  0  0  0  0  0  0
   14.3405    8.8141   13.3655 O   0  0  0  0  0  0  0  0  0  0  0  0
   15.6449   10.1575   11.9692 C   0  0  0  0  0  0  0  0  0  0  0  0
   15.8673   10.9206   13.1478 N   0  0  0  0  0  0  0  0  0  0  0  0
  1  2  3  0
  2  3  1  0
  3  4  1  0
  4  5  1  0
  5  6  1  0
  6  7  1  0
  7  8  2  0
  7  9  1  0
  9 10  1  0
 10 11  2  0
 11 12  1  0
 12 13  2  0
 13 14  1  0
 13 15  1  0
 15 16  1  0
 15 17  2  0
 17 18  1  0
 17 10  1  0
M  END
>  <ref_pdb>  (383) 
c0270a

>  <inchikey>  (383) 
NYNFKEMDNOXRJR-UHFFFAOYSA-N

>  <original ID>  (383) 
NYNFKEMDNOXRJR-UHFFFAOYSA-N

>  <generation_date>  (383) 
None

>  <alias>  (383) 
None

>  <tags>  (383) 
[]

>  <ref_mols>  (383) 
c0692a,c1116a

>  <ref_url>  (383) 
None

>  <submitter_name>  (383) 
None

>  <exports>  (383) 
nan

>  <original SMILES>  (383) 
C#CCCOCC(=O)Nc1ccc(Br)c(O)c1N

>  <method>  (383) 
None

>  <submitter_email>  (383) 
None

>  <HIPPO ID>  (383) 
113434

$$$$
VWTXIZQFUZQASV-UHFFFAOYSA-N
     RDKit          3D

 18 18  0  0  0  0  0  0  0  0999 V2000
   24.6815   12.4818   11.3842 C   0  0  0  0  0  0  0  0  0  0  0  0
   23.5984   11.9873   11.5343 C   0  0  0  0  0  0  0  0  0  0  0  0
   22.2580   11.4121   11.6746 C   0  0  0  0  0  0  0  0  0  0  0  0
   21.4679   11.6011   10.3880 C   0  0  0  0  0  0  0  0  0  0  0  0
   20.0722   11.3282   10.5567 O   0  0  0  0  0  0  0  0  0  0  0  0
   19.3784   12.4365   11.1125 C   0  0  0  0  0  0  0  0  0  0  0  0
   17.9000   12.1363   11.3095 C   0  0  0  0  0  0  0  0  0  0  0  0
   17.1991   12.8572   12.0233 O   0  0  0  0  0  0  0  0  0  0  0  0
   17.4194   11.0504   10.6196 N   0  0  0  0  0  0  0  0  0  0  0  0
   16.2921   10.2651   10.9491 C   0  0  0  0  0  0  0  0  0  0  0  0
   15.7785    9.4010    9.9627 C   0  0  0  0  0  0  0  0  0  0  0  0
   16.2057    9.4586    8.6387 N   0  0  0  0  0  0  0  0  0  0  0  0
   14.9568    8.3326   10.3224 C   0  0  0  0  0  0  0  0  0  0  0  0
   14.5568    8.1797   11.6399 C   0  0  0  0  0  0  0  0  0  0  0  0
   14.9244    9.1439   12.5753 C   0  0  0  0  0  0  0  0  0  0  0  0
   14.2516    9.0762   14.3296 Br  0  0  0  0  0  0  0  0  0  0  0  0
   15.7797   10.1850   12.2414 C   0  0  0  0  0  0  0  0  0  0  0  0
   16.1553   11.0245   13.2530 O   0  0  0  0  0  0  0  0  0  0  0  0
  1  2  3  0
  2  3  1  0
  3  4  1  0
  4  5  1  0
  5  6  1  0
  6  7  1  0
  7  8  2  0
  7  9  1  0
  9 10  1  0
 10 11  2  0
 11 12  1  0
 11 13  1  0
 13 14  2  0
 14 15  1  0
 15 16  1  0
 15 17  2  0
 17 18  1  0
 17 10  1  0
M  END
>  <ref_pdb>  (384) 
c0270a

>  <inchikey>  (384) 
VWTXIZQFUZQASV-UHFFFAOYSA-N

>  <original ID>  (384) 
VWTXIZQFUZQASV-UHFFFAOYSA-N

>  <generation_date>  (384) 
None

>  <alias>  (384) 
None

>  <tags>  (384) 
[]

>  <ref_mols>  (384) 
c0692a,c1116a

>  <ref_url>  (384) 
None

>  <submitter_name>  (384) 
None

>  <exports>  (384) 
nan

>  <original SMILES>  (384) 
C#CCCOCC(=O)Nc1c(N)ccc(Br)c1O

>  <method>  (384) 
None

>  <submitter_email>  (384) 
None

>  <HIPPO ID>  (384) 
113435

$$$$
XYXVYUBGKHRLOY-UHFFFAOYSA-N
     RDKit          3D

 18 18  0  0  0  0  0  0  0  0999 V2000
   24.1010   12.2220    8.9178 C   0  0  0  0  0  0  0  0  0  0  0  0
   23.1469   11.7387    9.4635 C   0  0  0  0  0  0  0  0  0  0  0  0
   21.9714   11.1279   10.0890 C   0  0  0  0  0  0  0  0  0  0  0  0
   21.1176   12.1774   10.7650 C   0  0  0  0  0  0  0  0  0  0  0  0
   19.7626   11.7118   10.8577 O   0  0  0  0  0  0  0  0  0  0  0  0
   18.9647   12.7282   11.4396 C   0  0  0  0  0  0  0  0  0  0  0  0
   17.5837   12.2774   11.8913 C   0  0  0  0  0  0  0  0  0  0  0  0
   17.1409   12.6826   12.9660 O   0  0  0  0  0  0  0  0  0  0  0  0
   16.9071   11.4439   11.0347 N   0  0  0  0  0  0  0  0  0  0  0  0
   15.8623   10.5682   11.4017 C   0  0  0  0  0  0  0  0  0  0  0  0
   15.5919   10.2846   12.7214 C   0  0  0  0  0  0  0  0  0  0  0  0
   14.8540    9.1571   13.0284 C   0  0  0  0  0  0  0  0  0  0  0  0
   14.3283    8.9657   14.8026 Br  0  0  0  0  0  0  0  0  0  0  0  0
   14.4429    8.2522   12.0604 C   0  0  0  0  0  0  0  0  0  0  0  0
   14.5417    8.6338   10.7374 C   0  0  0  0  0  0  0  0  0  0  0  0
   15.1800    9.8415   10.4100 C   0  0  0  0  0  0  0  0  0  0  0  0
   15.3683   10.1598    9.0355 N   0  0  0  0  0  0  0  0  0  0  0  0
   16.4637    9.2824    8.6982 C   0  0  0  0  0  0  0  0  0  0  0  0
  1  2  3  0
  2  3  1  0
  3  4  1  0
  4  5  1  0
  5  6  1  0
  6  7  1  0
  7  8  2  0
  7  9  1  0
  9 10  1  0
 10 11  2  0
 11 12  1  0
 12 13  1  0
 12 14  2  0
 14 15  1  0
 15 16  2  0
 16 17  1  0
 17 18  1  0
 16 10  1  0
M  END
>  <ref_pdb>  (385) 
c0270a

>  <inchikey>  (385) 
XYXVYUBGKHRLOY-UHFFFAOYSA-N

>  <original ID>  (385) 
XYXVYUBGKHRLOY-UHFFFAOYSA-N

>  <generation_date>  (385) 
None

>  <alias>  (385) 
None

>  <tags>  (385) 
[]

>  <ref_mols>  (385) 
c0692a,c1116a

>  <ref_url>  (385) 
None

>  <submitter_name>  (385) 
None

>  <exports>  (385) 
['/opt/xchem-fragalysis-2/maxwin/CHIKV_HIPPO/hippo_prod/CHIKV_prod11_recipes/Recipe_1GERJCJ_poses.sdf']

>  <original SMILES>  (385) 
C#CCCOCC(=O)Nc1cc(Br)ccc1NC

>  <method>  (385) 
None

>  <submitter_email>  (385) 
None

>  <HIPPO ID>  (385) 
113437

$$$$
KQVACLMGGWFUAH-VIFPVBQESA-N
     RDKit          3D

 18 18  0  0  0  0  0  0  0  0999 V2000
   21.7093   11.6031   10.3937 C   0  0  0  0  0  0  0  0  0  0  0  0
   20.3428   11.4964   10.7805 O   0  0  0  0  0  0  0  0  0  0  0  0
   19.7980   12.7050   11.3359 C   0  0  2  0  0  0  0  0  0  0  0  0
   20.3437   13.2244   12.6592 C   0  0  0  0  0  0  0  0  0  0  0  0
   19.7979   14.0437   13.3809 O   0  0  0  0  0  0  0  0  0  0  0  0
   21.5352   12.7050   13.0057 O   0  0  0  0  0  0  0  0  0  0  0  0
   18.2875   12.4735   11.5004 C   0  0  0  0  0  0  0  0  0  0  0  0
   17.4962   13.3483   11.8367 O   0  0  0  0  0  0  0  0  0  0  0  0
   17.9480   11.1766   11.1980 N   0  0  0  0  0  0  0  0  0  0  0  0
   16.6694   10.7043   10.9138 C   0  0  0  0  0  0  0  0  0  0  0  0
   16.6557    9.6490   10.0257 C   0  0  0  0  0  0  0  0  0  0  0  0
   15.5109    9.1389    9.4746 C   0  0  0  0  0  0  0  0  0  0  0  0
   14.3301    9.7905    9.7060 C   0  0  0  0  0  0  0  0  0  0  0  0
   13.1476    9.2062    9.0070 C   0  0  0  0  0  0  0  0  0  0  0  0
   14.3503   10.8701   10.6113 C   0  0  0  0  0  0  0  0  0  0  0  0
   13.2832   11.6606   10.7885 F   0  0  0  0  0  0  0  0  0  0  0  0
   15.4817   11.2653   11.3159 C   0  0  0  0  0  0  0  0  0  0  0  0
   15.3492   12.0266   12.4940 N   0  0  0  0  0  0  0  0  0  0  0  0
  1  2  1  0
  3  2  1  1
  3  4  1  0
  4  5  2  0
  4  6  1  0
  3  7  1  0
  7  8  2  0
  7  9  1  0
  9 10  1  0
 10 11  2  0
 11 12  1  0
 12 13  2  0
 13 14  1  0
 13 15  1  0
 15 16  1  0
 15 17  2  0
 17 18  1  0
 17 10  1  0
M  END
>  <ref_pdb>  (386) 
c0270a

>  <inchikey>  (386) 
KQVACLMGGWFUAH-VIFPVBQESA-N

>  <original ID>  (386) 
KQVACLMGGWFUAH-VIFPVBQESA-N

>  <generation_date>  (386) 
None

>  <alias>  (386) 
None

>  <tags>  (386) 
[]

>  <ref_mols>  (386) 
c0692a,c1116a

>  <ref_url>  (386) 
None

>  <submitter_name>  (386) 
None

>  <exports>  (386) 
nan

>  <original SMILES>  (386) 
CO[C@H](C(=O)O)C(=O)Nc1ccc(C)c(F)c1N

>  <method>  (386) 
None

>  <submitter_email>  (386) 
None

>  <HIPPO ID>  (386) 
113447

$$$$
KQVACLMGGWFUAH-SECBINFHSA-N
     RDKit          3D

 18 18  0  0  0  0  0  0  0  0999 V2000
   21.5683   11.4214   10.5809 C   0  0  0  0  0  0  0  0  0  0  0  0
   20.1546   11.4721   10.4164 O   0  0  0  0  0  0  0  0  0  0  0  0
   19.5472   12.4651   11.2445 C   0  0  1  0  0  0  0  0  0  0  0  0
   19.7907   13.8957   10.7870 C   0  0  0  0  0  0  0  0  0  0  0  0
   20.1790   14.2608    9.6856 O   0  0  0  0  0  0  0  0  0  0  0  0
   19.5483   14.8115   11.7448 O   0  0  0  0  0  0  0  0  0  0  0  0
   18.0450   12.1665   11.3575 C   0  0  0  0  0  0  0  0  0  0  0  0
   17.2887   12.8635   12.0355 O   0  0  0  0  0  0  0  0  0  0  0  0
   17.6360   11.0651   10.6319 N   0  0  0  0  0  0  0  0  0  0  0  0
   16.4618   10.3051   10.7818 C   0  0  0  0  0  0  0  0  0  0  0  0
   16.0967    9.5046    9.6915 C   0  0  0  0  0  0  0  0  0  0  0  0
   15.1119    8.5311    9.7983 C   0  0  0  0  0  0  0  0  0  0  0  0
   14.5372    8.2657   11.0253 C   0  0  0  0  0  0  0  0  0  0  0  0
   13.6845    7.0437   11.1767 C   0  0  0  0  0  0  0  0  0  0  0  0
   14.8392    9.1370   12.0756 C   0  0  0  0  0  0  0  0  0  0  0  0
   14.2221    9.0123   13.2534 F   0  0  0  0  0  0  0  0  0  0  0  0
   15.7381   10.2038   11.9707 C   0  0  0  0  0  0  0  0  0  0  0  0
   16.0609   10.9045   13.1587 N   0  0  0  0  0  0  0  0  0  0  0  0
  1  2  1  0
  3  2  1  6
  3  4  1  0
  4  5  2  0
  4  6  1  0
  3  7  1  0
  7  8  2  0
  7  9  1  0
  9 10  1  0
 10 11  2  0
 11 12  1  0
 12 13  2  0
 13 14  1  0
 13 15  1  0
 15 16  1  0
 15 17  2  0
 17 18  1  0
 17 10  1  0
M  END
>  <ref_pdb>  (387) 
c0270a

>  <inchikey>  (387) 
KQVACLMGGWFUAH-SECBINFHSA-N

>  <original ID>  (387) 
KQVACLMGGWFUAH-SECBINFHSA-N

>  <generation_date>  (387) 
None

>  <alias>  (387) 
None

>  <tags>  (387) 
[]

>  <ref_mols>  (387) 
c0692a,c1116a

>  <ref_url>  (387) 
None

>  <submitter_name>  (387) 
None

>  <exports>  (387) 
nan

>  <original SMILES>  (387) 
CO[C@@H](C(=O)O)C(=O)Nc1ccc(C)c(F)c1N

>  <method>  (387) 
None

>  <submitter_email>  (387) 
None

>  <HIPPO ID>  (387) 
113448

$$$$
QODQVQPNFADPKL-VIFPVBQESA-N
     RDKit          3D

 18 18  0  0  0  0  0  0  0  0999 V2000
   21.2642   11.5109   10.4674 C   0  0  0  0  0  0  0  0  0  0  0  0
   19.8640   11.6814   10.6942 O   0  0  0  0  0  0  0  0  0  0  0  0
   19.5036   12.8771   11.4160 C   0  0  2  0  0  0  0  0  0  0  0  0
   20.3192   13.2060   12.6491 C   0  0  0  0  0  0  0  0  0  0  0  0
   21.3128   12.6115   13.0296 O   0  0  0  0  0  0  0  0  0  0  0  0
   19.8899   14.2824   13.3278 O   0  0  0  0  0  0  0  0  0  0  0  0
   18.0106   12.7523   11.7846 C   0  0  0  0  0  0  0  0  0  0  0  0
   17.2547   13.6993   11.9668 O   0  0  0  0  0  0  0  0  0  0  0  0
   17.6074   11.4385   11.8575 N   0  0  0  0  0  0  0  0  0  0  0  0
   16.4204   11.0379   11.2400 C   0  0  0  0  0  0  0  0  0  0  0  0
   15.1952   11.5757   11.4584 C   0  0  0  0  0  0  0  0  0  0  0  0
   14.1824   11.1083   10.6496 C   0  0  0  0  0  0  0  0  0  0  0  0
   13.0496   11.8044   10.7422 F   0  0  0  0  0  0  0  0  0  0  0  0
   14.3152    9.9995    9.7721 C   0  0  0  0  0  0  0  0  0  0  0  0
   13.2215    9.2847    9.0365 C   0  0  0  0  0  0  0  0  0  0  0  0
   15.5723    9.4837    9.5891 C   0  0  0  0  0  0  0  0  0  0  0  0
   16.6127   10.1200   10.2135 C   0  0  0  0  0  0  0  0  0  0  0  0
   17.9220    9.8568    9.8683 N   0  0  0  0  0  0  0  0  0  0  0  0
  1  2  1  0
  3  2  1  1
  3  4  1  0
  4  5  2  0
  4  6  1  0
  3  7  1  0
  7  8  2  0
  7  9  1  0
  9 10  1  0
 10 11  2  0
 11 12  1  0
 12 13  1  0
 12 14  2  0
 14 15  1  0
 14 16  1  0
 16 17  2  0
 17 18  1  0
 17 10  1  0
M  END
>  <ref_pdb>  (388) 
c0270a

>  <inchikey>  (388) 
QODQVQPNFADPKL-VIFPVBQESA-N

>  <original ID>  (388) 
QODQVQPNFADPKL-VIFPVBQESA-N

>  <generation_date>  (388) 
None

>  <alias>  (388) 
None

>  <tags>  (388) 
[]

>  <ref_mols>  (388) 
c0692a,c1116a

>  <ref_url>  (388) 
None

>  <submitter_name>  (388) 
None

>  <exports>  (388) 
nan

>  <original SMILES>  (388) 
CO[C@H](C(=O)O)C(=O)Nc1cc(F)c(C)cc1N

>  <method>  (388) 
None

>  <submitter_email>  (388) 
None

>  <HIPPO ID>  (388) 
113456

$$$$
LUUIWRLADWBGPF-SNVBAGLBSA-N
     RDKit          3D

 18 18  0  0  0  0  0  0  0  0999 V2000
   21.5775   11.3100   10.6026 C   0  0  0  0  0  0  0  0  0  0  0  0
   20.1877   11.4937   10.3535 O   0  0  0  0  0  0  0  0  0  0  0  0
   19.6153   12.4943   11.1868 C   0  0  1  0  0  0  0  0  0  0  0  0
   19.9005   13.9470   10.8109 C   0  0  0  0  0  0  0  0  0  0  0  0
   19.5463   14.9447   11.4172 O   0  0  0  0  0  0  0  0  0  0  0  0
   20.6471   14.1121    9.7000 O   0  0  0  0  0  0  0  0  0  0  0  0
   18.1100   12.2504   11.3214 C   0  0  0  0  0  0  0  0  0  0  0  0
   17.3867   13.0044   11.9760 O   0  0  0  0  0  0  0  0  0  0  0  0
   17.6426   11.1275   10.6692 N   0  0  0  0  0  0  0  0  0  0  0  0
   16.4607   10.4158   10.9490 C   0  0  0  0  0  0  0  0  0  0  0  0
   15.9044    9.6757    9.8982 C   0  0  0  0  0  0  0  0  0  0  0  0
   14.8526    8.7991   10.1335 C   0  0  0  0  0  0  0  0  0  0  0  0
   13.9656    8.3094    9.0390 C   0  0  0  0  0  0  0  0  0  0  0  0
   14.5305    8.4943   11.4450 C   0  0  0  0  0  0  0  0  0  0  0  0
   14.9873    9.3079   12.4848 C   0  0  0  0  0  0  0  0  0  0  0  0
   14.4386    9.1293   13.8593 C   0  0  0  0  0  0  0  0  0  0  0  0
   15.8811   10.3527   12.2291 C   0  0  0  0  0  0  0  0  0  0  0  0
   16.3525   11.1110   13.3279 N   0  0  0  0  0  0  0  0  0  0  0  0
  1  2  1  0
  3  2  1  6
  3  4  1  0
  4  5  2  0
  4  6  1  0
  3  7  1  0
  7  8  2  0
  7  9  1  0
  9 10  1  0
 10 11  2  0
 11 12  1  0
 12 13  1  0
 12 14  2  0
 14 15  1  0
 15 16  1  0
 15 17  2  0
 17 18  1  0
 17 10  1  0
M  END
>  <ref_pdb>  (389) 
c0270a

>  <inchikey>  (389) 
LUUIWRLADWBGPF-SNVBAGLBSA-N

>  <original ID>  (389) 
LUUIWRLADWBGPF-SNVBAGLBSA-N

>  <generation_date>  (389) 
None

>  <alias>  (389) 
None

>  <tags>  (389) 
[]

>  <ref_mols>  (389) 
c0692a,c1116a

>  <ref_url>  (389) 
None

>  <submitter_name>  (389) 
None

>  <exports>  (389) 
nan

>  <original SMILES>  (389) 
CO[C@@H](C(=O)O)C(=O)Nc1cc(C)cc(C)c1N

>  <method>  (389) 
None

>  <submitter_email>  (389) 
None

>  <HIPPO ID>  (389) 
113470

$$$$
NALZRBTVAJZBPH-UHFFFAOYSA-N
     RDKit          3D

 18 18  0  0  0  0  0  0  0  0999 V2000
   23.0408   11.1556    9.4268 C   0  0  0  0  0  0  0  0  0  0  0  0
   22.6240   11.2686   10.5404 C   0  0  0  0  0  0  0  0  0  0  0  0
   22.3291   11.5683   11.9301 C   0  0  0  0  0  0  0  0  0  0  0  0
   21.3268   12.7025   11.9914 C   0  0  0  0  0  0  0  0  0  0  0  0
   20.0531   12.1619   11.6922 O   0  0  0  0  0  0  0  0  0  0  0  0
   19.0319   13.1263   11.6272 C   0  0  0  0  0  0  0  0  0  0  0  0
   17.6048   12.5495   11.5459 C   0  0  0  0  0  0  0  0  0  0  0  0
   16.6834   13.1974   12.0599 O   0  0  0  0  0  0  0  0  0  0  0  0
   17.3907   11.3771   10.8276 N   0  0  0  0  0  0  0  0  0  0  0  0
   18.5192   10.7124   10.2231 C   0  0  0  0  0  0  0  0  0  0  0  0
   16.2470   10.5278   11.0090 C   0  0  0  0  0  0  0  0  0  0  0  0
   15.8196    9.7178    9.9305 C   0  0  0  0  0  0  0  0  0  0  0  0
   14.9805    8.6247   10.1167 C   0  0  0  0  0  0  0  0  0  0  0  0
   14.5834    8.3057   11.4013 C   0  0  0  0  0  0  0  0  0  0  0  0
   14.9146    9.1661   12.4525 C   0  0  0  0  0  0  0  0  0  0  0  0
   14.2906    8.7926   14.1927 Br  0  0  0  0  0  0  0  0  0  0  0  0
   15.6777   10.3271   12.2741 C   0  0  0  0  0  0  0  0  0  0  0  0
   16.0651   11.0780   13.4170 N   0  0  0  0  0  0  0  0  0  0  0  0
  1  2  3  0
  2  3  1  0
  3  4  1  0
  4  5  1  0
  5  6  1  0
  6  7  1  0
  7  8  2  0
  7  9  1  0
  9 10  1  0
  9 11  1  0
 11 12  2  0
 12 13  1  0
 13 14  2  0
 14 15  1  0
 15 16  1  0
 15 17  2  0
 17 18  1  0
 17 11  1  0
M  END
>  <ref_pdb>  (390) 
c0270a

>  <inchikey>  (390) 
NALZRBTVAJZBPH-UHFFFAOYSA-N

>  <original ID>  (390) 
NALZRBTVAJZBPH-UHFFFAOYSA-N

>  <generation_date>  (390) 
None

>  <alias>  (390) 
None

>  <tags>  (390) 
[]

>  <ref_mols>  (390) 
c0692a,c1116a

>  <ref_url>  (390) 
None

>  <submitter_name>  (390) 
None

>  <exports>  (390) 
nan

>  <original SMILES>  (390) 
C#CCCOCC(=O)N(C)c1cccc(Br)c1N

>  <method>  (390) 
None

>  <submitter_email>  (390) 
None

>  <HIPPO ID>  (390) 
113480

$$$$
CJFJDSZPOCCKLY-UHFFFAOYSA-N
     RDKit          3D

 18 18  0  0  0  0  0  0  0  0999 V2000
   21.5547   14.9040   11.9206 C   0  0  0  0  0  0  0  0  0  0  0  0
   21.8519   14.0292   11.1530 C   0  0  0  0  0  0  0  0  0  0  0  0
   22.1815   12.9160   10.2439 C   0  0  0  0  0  0  0  0  0  0  0  0
   21.4830   11.6035   10.6395 C   0  0  0  0  0  0  0  0  0  0  0  0
   20.0695   11.5488   10.3759 O   0  0  0  0  0  0  0  0  0  0  0  0
   19.3182   12.4589   11.1610 C   0  0  0  0  0  0  0  0  0  0  0  0
   17.8781   12.0373   11.4090 C   0  0  0  0  0  0  0  0  0  0  0  0
   17.2075   12.6211   12.2601 O   0  0  0  0  0  0  0  0  0  0  0  0
   17.4328   11.0072   10.6111 N   0  0  0  0  0  0  0  0  0  0  0  0
   16.3149   10.1993   10.8737 C   0  0  0  0  0  0  0  0  0  0  0  0
   15.7919   10.1191   12.1522 C   0  0  0  0  0  0  0  0  0  0  0  0
   14.8650    9.1357   12.4672 C   0  0  0  0  0  0  0  0  0  0  0  0
   14.3347    9.1570   13.8537 C   0  0  0  0  0  0  0  0  0  0  0  0
   14.4604    8.2323   11.4821 C   0  0  0  0  0  0  0  0  0  0  0  0
   13.5505    7.2830   11.7455 F   0  0  0  0  0  0  0  0  0  0  0  0
   14.9050    8.3591   10.1831 C   0  0  0  0  0  0  0  0  0  0  0  0
   15.7928    9.3782    9.8642 C   0  0  0  0  0  0  0  0  0  0  0  0
   16.2554    9.4389    8.5567 N   0  0  0  0  0  0  0  0  0  0  0  0
  1  2  3  0
  2  3  1  0
  3  4  1  0
  4  5  1  0
  5  6  1  0
  6  7  1  0
  7  8  2  0
  7  9  1  0
  9 10  1  0
 10 11  2  0
 11 12  1  0
 12 13  1  0
 12 14  2  0
 14 15  1  0
 14 16  1  0
 16 17  2  0
 17 18  1  0
 17 10  1  0
M  END
>  <ref_pdb>  (391) 
c0270a

>  <inchikey>  (391) 
CJFJDSZPOCCKLY-UHFFFAOYSA-N

>  <original ID>  (391) 
CJFJDSZPOCCKLY-UHFFFAOYSA-N

>  <generation_date>  (391) 
None

>  <alias>  (391) 
None

>  <tags>  (391) 
[]

>  <ref_mols>  (391) 
c0692a,c1116a

>  <ref_url>  (391) 
None

>  <submitter_name>  (391) 
None

>  <exports>  (391) 
nan

>  <original SMILES>  (391) 
C#CCCOCC(=O)Nc1cc(C)c(F)cc1N

>  <method>  (391) 
None

>  <submitter_email>  (391) 
None

>  <HIPPO ID>  (391) 
113486

$$$$
RGGAXAMXBINPFG-VIFPVBQESA-N
     RDKit          3D

 18 18  0  0  0  0  0  0  0  0999 V2000
   21.4370   11.3563   10.4051 C   0  0  0  0  0  0  0  0  0  0  0  0
   20.0393   11.2287   10.6505 O   0  0  0  0  0  0  0  0  0  0  0  0
   19.4135   12.4193   11.1250 C   0  0  2  0  0  0  0  0  0  0  0  0
   19.9023   13.0463   12.4406 C   0  0  0  0  0  0  0  0  0  0  0  0
   19.2615   13.7819   13.1735 O   0  0  0  0  0  0  0  0  0  0  0  0
   21.1742   12.7405   12.7632 O   0  0  0  0  0  0  0  0  0  0  0  0
   17.8931   12.1488   11.2223 C   0  0  0  0  0  0  0  0  0  0  0  0
   17.1106   12.9601   11.7139 O   0  0  0  0  0  0  0  0  0  0  0  0
   17.4740   10.9648   10.6517 N   0  0  0  0  0  0  0  0  0  0  0  0
   16.3074   10.2255   10.9451 C   0  0  0  0  0  0  0  0  0  0  0  0
   15.8261    9.3661    9.9290 C   0  0  0  0  0  0  0  0  0  0  0  0
   16.2919    9.4405    8.6196 N   0  0  0  0  0  0  0  0  0  0  0  0
   14.9719    8.3090   10.2282 C   0  0  0  0  0  0  0  0  0  0  0  0
   14.4821    8.1821   11.5066 C   0  0  0  0  0  0  0  0  0  0  0  0
   14.7871    9.1707   12.4340 C   0  0  0  0  0  0  0  0  0  0  0  0
   14.1276    9.1920   13.5929 F   0  0  0  0  0  0  0  0  0  0  0  0
   15.7126   10.1822   12.2064 C   0  0  0  0  0  0  0  0  0  0  0  0
   15.9777   11.0961   13.3605 C   0  0  0  0  0  0  0  0  0  0  0  0
  1  2  1  0
  3  2  1  1
  3  4  1  0
  4  5  2  0
  4  6  1  0
  3  7  1  0
  7  8  2  0
  7  9  1  0
  9 10  1  0
 10 11  2  0
 11 12  1  0
 11 13  1  0
 13 14  2  0
 14 15  1  0
 15 16  1  0
 15 17  2  0
 17 18  1  0
 17 10  1  0
M  END
>  <ref_pdb>  (392) 
c0270a

>  <inchikey>  (392) 
RGGAXAMXBINPFG-VIFPVBQESA-N

>  <original ID>  (392) 
RGGAXAMXBINPFG-VIFPVBQESA-N

>  <generation_date>  (392) 
None

>  <alias>  (392) 
None

>  <tags>  (392) 
[]

>  <ref_mols>  (392) 
c0692a,c1116a

>  <ref_url>  (392) 
None

>  <submitter_name>  (392) 
None

>  <exports>  (392) 
['/opt/xchem-fragalysis-2/maxwin/CHIKV_HIPPO/hippo_prod/CHIKV_prod11_recipes/Recipe_1GERJCJ_poses.sdf']

>  <original SMILES>  (392) 
CO[C@H](C(=O)O)C(=O)Nc1c(N)ccc(F)c1C

>  <method>  (392) 
None

>  <submitter_email>  (392) 
None

>  <HIPPO ID>  (392) 
113507

$$$$
RGGAXAMXBINPFG-SECBINFHSA-N
     RDKit          3D

 18 18  0  0  0  0  0  0  0  0999 V2000
   21.4438   11.2620   10.6134 C   0  0  0  0  0  0  0  0  0  0  0  0
   20.0506   11.4281   10.3611 O   0  0  0  0  0  0  0  0  0  0  0  0
   19.4638   12.4325   11.1794 C   0  0  1  0  0  0  0  0  0  0  0  0
   19.7956   13.8879   10.8500 C   0  0  0  0  0  0  0  0  0  0  0  0
   19.4731   14.8746   11.4901 O   0  0  0  0  0  0  0  0  0  0  0  0
   20.5580   14.0677    9.7525 O   0  0  0  0  0  0  0  0  0  0  0  0
   17.9449   12.1973   11.2886 C   0  0  0  0  0  0  0  0  0  0  0  0
   17.2123   12.9908   11.8743 O   0  0  0  0  0  0  0  0  0  0  0  0
   17.4944   11.0348   10.6881 N   0  0  0  0  0  0  0  0  0  0  0  0
   16.3311   10.2793   10.9755 C   0  0  0  0  0  0  0  0  0  0  0  0
   15.8637    9.4062    9.9599 C   0  0  0  0  0  0  0  0  0  0  0  0
   16.3329    9.4615    8.6508 N   0  0  0  0  0  0  0  0  0  0  0  0
   15.0087    8.3459   10.2538 C   0  0  0  0  0  0  0  0  0  0  0  0
   14.5037    8.2205   11.5246 C   0  0  0  0  0  0  0  0  0  0  0  0
   14.7938    9.2144   12.4494 C   0  0  0  0  0  0  0  0  0  0  0  0
   14.1196    9.2363   13.6000 F   0  0  0  0  0  0  0  0  0  0  0  0
   15.7181   10.2313   12.2290 C   0  0  0  0  0  0  0  0  0  0  0  0
   15.9590   11.1440   13.3883 C   0  0  0  0  0  0  0  0  0  0  0  0
  1  2  1  0
  3  2  1  6
  3  4  1  0
  4  5  2  0
  4  6  1  0
  3  7  1  0
  7  8  2  0
  7  9  1  0
  9 10  1  0
 10 11  2  0
 11 12  1  0
 11 13  1  0
 13 14  2  0
 14 15  1  0
 15 16  1  0
 15 17  2  0
 17 18  1  0
 17 10  1  0
M  END
>  <ref_pdb>  (393) 
c0270a

>  <inchikey>  (393) 
RGGAXAMXBINPFG-SECBINFHSA-N

>  <original ID>  (393) 
RGGAXAMXBINPFG-SECBINFHSA-N

>  <generation_date>  (393) 
None

>  <alias>  (393) 
None

>  <tags>  (393) 
[]

>  <ref_mols>  (393) 
c0692a,c1116a

>  <ref_url>  (393) 
None

>  <submitter_name>  (393) 
None

>  <exports>  (393) 
['/opt/xchem-fragalysis-2/maxwin/CHIKV_HIPPO/hippo_prod/CHIKV_prod11_recipes/Recipe_1GERJCJ_poses.sdf']

>  <original SMILES>  (393) 
CO[C@@H](C(=O)O)C(=O)Nc1c(N)ccc(F)c1C

>  <method>  (393) 
None

>  <submitter_email>  (393) 
None

>  <HIPPO ID>  (393) 
113508

$$$$
GXKYAPBCDKGKQC-UHFFFAOYSA-N
     RDKit          3D

 18 18  0  0  0  0  0  0  0  0999 V2000
   21.8635   13.8249   13.1798 C   0  0  0  0  0  0  0  0  0  0  0  0
   21.9927   13.4012   12.0633 C   0  0  0  0  0  0  0  0  0  0  0  0
   22.1288   12.8008   10.7210 C   0  0  0  0  0  0  0  0  0  0  0  0
   21.4198   11.4415   10.6489 C   0  0  0  0  0  0  0  0  0  0  0  0
   20.0192   11.4979   10.3410 O   0  0  0  0  0  0  0  0  0  0  0  0
   19.2857   12.4111   11.1320 C   0  0  0  0  0  0  0  0  0  0  0  0
   17.8093   12.0850   11.2404 C   0  0  0  0  0  0  0  0  0  0  0  0
   17.0661   12.8127   11.9034 O   0  0  0  0  0  0  0  0  0  0  0  0
   17.4145   10.9579   10.5640 N   0  0  0  0  0  0  0  0  0  0  0  0
   16.2839   10.1643   10.8342 C   0  0  0  0  0  0  0  0  0  0  0  0
   15.8518    9.2824    9.8277 C   0  0  0  0  0  0  0  0  0  0  0  0
   16.3621    9.3639    8.5978 F   0  0  0  0  0  0  0  0  0  0  0  0
   14.9185    8.2834   10.0643 C   0  0  0  0  0  0  0  0  0  0  0  0
   14.4284    8.1264   11.3422 C   0  0  0  0  0  0  0  0  0  0  0  0
   14.7735    9.0681   12.3076 C   0  0  0  0  0  0  0  0  0  0  0  0
   14.1705    9.0483   13.4988 F   0  0  0  0  0  0  0  0  0  0  0  0
   15.6574   10.1195   12.0824 C   0  0  0  0  0  0  0  0  0  0  0  0
   16.0430   10.8818   13.2122 N   0  0  0  0  0  0  0  0  0  0  0  0
  1  2  3  0
  2  3  1  0
  3  4  1  0
  4  5  1  0
  5  6  1  0
  6  7  1  0
  7  8  2  0
  7  9  1  0
  9 10  1  0
 10 11  2  0
 11 12  1  0
 11 13  1  0
 13 14  2  0
 14 15  1  0
 15 16  1  0
 15 17  2  0
 17 18  1  0
 17 10  1  0
M  END
>  <ref_pdb>  (394) 
c0270a

>  <inchikey>  (394) 
GXKYAPBCDKGKQC-UHFFFAOYSA-N

>  <original ID>  (394) 
GXKYAPBCDKGKQC-UHFFFAOYSA-N

>  <generation_date>  (394) 
None

>  <alias>  (394) 
None

>  <tags>  (394) 
[]

>  <ref_mols>  (394) 
c0692a,c1116a

>  <ref_url>  (394) 
None

>  <submitter_name>  (394) 
None

>  <exports>  (394) 
nan

>  <original SMILES>  (394) 
C#CCCOCC(=O)Nc1c(F)ccc(F)c1N

>  <method>  (394) 
None

>  <submitter_email>  (394) 
None

>  <HIPPO ID>  (394) 
113514

$$$$
IZPOACNKCLINPU-UHFFFAOYSA-N
     RDKit          3D

 18 18  0  0  0  0  0  0  0  0999 V2000
   24.2289   12.1516    9.0950 C   0  0  0  0  0  0  0  0  0  0  0  0
   23.2529   11.6749    9.6042 C   0  0  0  0  0  0  0  0  0  0  0  0
   22.0462   11.0803   10.1699 C   0  0  0  0  0  0  0  0  0  0  0  0
   21.1797   12.1439   10.7972 C   0  0  0  0  0  0  0  0  0  0  0  0
   19.8343   11.6647   10.8087 O   0  0  0  0  0  0  0  0  0  0  0  0
   18.9881   12.6375   11.3910 C   0  0  0  0  0  0  0  0  0  0  0  0
   17.5818   12.1063   11.5836 C   0  0  0  0  0  0  0  0  0  0  0  0
   16.8572   12.6018   12.4449 O   0  0  0  0  0  0  0  0  0  0  0  0
   17.2216   11.0925   10.7191 N   0  0  0  0  0  0  0  0  0  0  0  0
   16.1698   10.1838   10.9265 C   0  0  0  0  0  0  0  0  0  0  0  0
   15.6515    9.9874   12.1945 C   0  0  0  0  0  0  0  0  0  0  0  0
   14.8035    8.9130   12.4617 C   0  0  0  0  0  0  0  0  0  0  0  0
   14.3277    8.8373   13.8698 C   0  0  0  0  0  0  0  0  0  0  0  0
   14.4652    8.0289   11.4300 C   0  0  0  0  0  0  0  0  0  0  0  0
   13.4743    6.6327   11.6515 Cl  0  0  0  0  0  0  0  0  0  0  0  0
   14.8976    8.2871   10.1403 C   0  0  0  0  0  0  0  0  0  0  0  0
   15.7154    9.3811    9.8753 C   0  0  0  0  0  0  0  0  0  0  0  0
   16.1961    9.5085    8.5811 N   0  0  0  0  0  0  0  0  0  0  0  0
  1  2  3  0
  2  3  1  0
  3  4  1  0
  4  5  1  0
  5  6  1  0
  6  7  1  0
  7  8  2  0
  7  9  1  0
  9 10  1  0
 10 11  2  0
 11 12  1  0
 12 13  1  0
 12 14  2  0
 14 15  1  0
 14 16  1  0
 16 17  2  0
 17 18  1  0
 17 10  1  0
M  END
>  <ref_pdb>  (395) 
c0270a

>  <inchikey>  (395) 
IZPOACNKCLINPU-UHFFFAOYSA-N

>  <original ID>  (395) 
IZPOACNKCLINPU-UHFFFAOYSA-N

>  <generation_date>  (395) 
None

>  <alias>  (395) 
None

>  <tags>  (395) 
[]

>  <ref_mols>  (395) 
c0692a,c1116a

>  <ref_url>  (395) 
None

>  <submitter_name>  (395) 
None

>  <exports>  (395) 
nan

>  <original SMILES>  (395) 
C#CCCOCC(=O)Nc1cc(C)c(Cl)cc1N

>  <method>  (395) 
None

>  <submitter_email>  (395) 
None

>  <HIPPO ID>  (395) 
113521

$$$$
UFSOGANPUFBMQU-UHFFFAOYSA-N
     RDKit          3D

 18 18  0  0  0  0  0  0  0  0999 V2000
   21.2690   10.5366    9.5402 C   0  0  0  0  0  0  0  0  0  0  0  0
   21.8183   11.5505    9.8443 C   0  0  0  0  0  0  0  0  0  0  0  0
   22.0758   12.8309   10.4644 C   0  0  0  0  0  0  0  0  0  0  0  0
   21.4043   12.7654   11.8402 C   0  0  0  0  0  0  0  0  0  0  0  0
   20.1331   12.0944   11.8237 O   0  0  0  0  0  0  0  0  0  0  0  0
   19.0848   12.8238   11.2380 C   0  0  0  0  0  0  0  0  0  0  0  0
   17.7292   12.1738   11.5250 C   0  0  0  0  0  0  0  0  0  0  0  0
   17.0260   12.6192   12.4321 O   0  0  0  0  0  0  0  0  0  0  0  0
   17.3690   11.1191   10.6986 N   0  0  0  0  0  0  0  0  0  0  0  0
   16.2957   10.2240   10.9304 C   0  0  0  0  0  0  0  0  0  0  0  0
   15.7532   10.0657   12.1938 C   0  0  0  0  0  0  0  0  0  0  0  0
   14.8935    9.0047   12.4665 C   0  0  0  0  0  0  0  0  0  0  0  0
   14.3041    8.9857   14.0716 Cl  0  0  0  0  0  0  0  0  0  0  0  0
   14.5619    8.0771   11.4764 C   0  0  0  0  0  0  0  0  0  0  0  0
   13.4466    6.3184   11.7595 I   0  0  0  0  0  0  0  0  0  0  0  0
   14.9993    8.3103   10.1836 C   0  0  0  0  0  0  0  0  0  0  0  0
   15.8256    9.3976    9.8992 C   0  0  0  0  0  0  0  0  0  0  0  0
   16.2901    9.4854    8.5946 N   0  0  0  0  0  0  0  0  0  0  0  0
  1  2  3  0
  2  3  1  0
  3  4  1  0
  4  5  1  0
  5  6  1  0
  6  7  1  0
  7  8  2  0
  7  9  1  0
  9 10  1  0
 10 11  2  0
 11 12  1  0
 12 13  1  0
 12 14  2  0
 14 15  1  0
 14 16  1  0
 16 17  2  0
 17 18  1  0
 17 10  1  0
M  END
>  <ref_pdb>  (396) 
c0270a

>  <inchikey>  (396) 
UFSOGANPUFBMQU-UHFFFAOYSA-N

>  <original ID>  (396) 
UFSOGANPUFBMQU-UHFFFAOYSA-N

>  <generation_date>  (396) 
None

>  <alias>  (396) 
None

>  <tags>  (396) 
[]

>  <ref_mols>  (396) 
c0692a,c1116a

>  <ref_url>  (396) 
None

>  <submitter_name>  (396) 
None

>  <exports>  (396) 
['/opt/xchem-fragalysis-2/maxwin/CHIKV_HIPPO/hippo_prod/CHIKV_prod11_recipes/Recipe_1GERJCJ_poses.sdf']

>  <original SMILES>  (396) 
C#CCCOCC(=O)Nc1cc(Cl)c(I)cc1N

>  <method>  (396) 
None

>  <submitter_email>  (396) 
None

>  <HIPPO ID>  (396) 
113527

$$$$
AKSZIRMHVDMFQN-UHFFFAOYSA-N
     RDKit          3D

 18 18  0  0  0  0  0  0  0  0999 V2000
   24.6080   13.4895   10.2527 C   0  0  0  0  0  0  0  0  0  0  0  0
   23.4978   13.0581   10.1170 C   0  0  0  0  0  0  0  0  0  0  0  0
   22.1659   12.5622    9.8020 C   0  0  0  0  0  0  0  0  0  0  0  0
   21.5827   11.5809   10.8122 C   0  0  0  0  0  0  0  0  0  0  0  0
   20.1655   11.3877   10.6233 O   0  0  0  0  0  0  0  0  0  0  0  0
   19.3929   12.4422   11.1805 C   0  0  0  0  0  0  0  0  0  0  0  0
   17.9268   12.0702   11.4170 C   0  0  0  0  0  0  0  0  0  0  0  0
   17.2454   12.7171   12.2130 O   0  0  0  0  0  0  0  0  0  0  0  0
   17.4553   11.0180   10.6635 N   0  0  0  0  0  0  0  0  0  0  0  0
   16.3218   10.2338   10.9590 C   0  0  0  0  0  0  0  0  0  0  0  0
   15.7912   10.1882   12.2319 C   0  0  0  0  0  0  0  0  0  0  0  0
   14.9333    9.1484   12.5875 C   0  0  0  0  0  0  0  0  0  0  0  0
   14.3785    9.1961   14.5578 I   0  0  0  0  0  0  0  0  0  0  0  0
   14.5542    8.1779   11.6569 C   0  0  0  0  0  0  0  0  0  0  0  0
   13.5842    6.7871   11.9952 Cl  0  0  0  0  0  0  0  0  0  0  0  0
   14.9639    8.3216   10.3472 C   0  0  0  0  0  0  0  0  0  0  0  0
   15.8246    9.3579    9.9924 C   0  0  0  0  0  0  0  0  0  0  0  0
   16.3332    9.3394    8.7160 N   0  0  0  0  0  0  0  0  0  0  0  0
  1  2  3  0
  2  3  1  0
  3  4  1  0
  4  5  1  0
  5  6  1  0
  6  7  1  0
  7  8  2  0
  7  9  1  0
  9 10  1  0
 10 11  2  0
 11 12  1  0
 12 13  1  0
 12 14  2  0
 14 15  1  0
 14 16  1  0
 16 17  2  0
 17 18  1  0
 17 10  1  0
M  END
>  <ref_pdb>  (397) 
c0270a

>  <inchikey>  (397) 
AKSZIRMHVDMFQN-UHFFFAOYSA-N

>  <original ID>  (397) 
AKSZIRMHVDMFQN-UHFFFAOYSA-N

>  <generation_date>  (397) 
None

>  <alias>  (397) 
None

>  <tags>  (397) 
[]

>  <ref_mols>  (397) 
c0692a,c1116a

>  <ref_url>  (397) 
None

>  <submitter_name>  (397) 
None

>  <exports>  (397) 
['/opt/xchem-fragalysis-2/maxwin/CHIKV_HIPPO/hippo_prod/CHIKV_prod11_recipes/Recipe_1GERJCJ_poses.sdf']

>  <original SMILES>  (397) 
C#CCCOCC(=O)Nc1cc(I)c(Cl)cc1N

>  <method>  (397) 
None

>  <submitter_email>  (397) 
None

>  <HIPPO ID>  (397) 
113528

$$$$
GDQHKUKEYJNFSW-UHFFFAOYSA-N
     RDKit          3D

 18 18  0  0  0  0  0  0  0  0999 V2000
   21.5552   14.5727    8.8055 C   0  0  0  0  0  0  0  0  0  0  0  0
   21.9597   13.5670    9.3209 C   0  0  0  0  0  0  0  0  0  0  0  0
   22.4466   12.2846    9.8509 C   0  0  0  0  0  0  0  0  0  0  0  0
   21.6048   11.7184   10.9911 C   0  0  0  0  0  0  0  0  0  0  0  0
   20.2218   11.5298   10.6550 O   0  0  0  0  0  0  0  0  0  0  0  0
   19.4008   12.5448   11.2200 C   0  0  0  0  0  0  0  0  0  0  0  0
   17.9360   12.1412   11.3478 C   0  0  0  0  0  0  0  0  0  0  0  0
   17.1627   12.8158   12.0306 O   0  0  0  0  0  0  0  0  0  0  0  0
   17.5847   11.0288   10.6229 N   0  0  0  0  0  0  0  0  0  0  0  0
   16.4278   10.2437   10.7741 C   0  0  0  0  0  0  0  0  0  0  0  0
   16.0462    9.4719    9.6703 C   0  0  0  0  0  0  0  0  0  0  0  0
   15.0599    8.4984    9.7713 C   0  0  0  0  0  0  0  0  0  0  0  0
   14.5039    8.2019   11.0007 C   0  0  0  0  0  0  0  0  0  0  0  0
   13.6433    6.9839   11.1392 C   0  0  0  0  0  0  0  0  0  0  0  0
   14.8306    9.0391   12.0695 C   0  0  0  0  0  0  0  0  0  0  0  0
   14.2284    8.8887   13.2518 F   0  0  0  0  0  0  0  0  0  0  0  0
   15.7325   10.1028   11.9775 C   0  0  0  0  0  0  0  0  0  0  0  0
   16.0888   10.7609   13.1821 N   0  0  0  0  0  0  0  0  0  0  0  0
  1  2  3  0
  2  3  1  0
  3  4  1  0
  4  5  1  0
  5  6  1  0
  6  7  1  0
  7  8  2  0
  7  9  1  0
  9 10  1  0
 10 11  2  0
 11 12  1  0
 12 13  2  0
 13 14  1  0
 13 15  1  0
 15 16  1  0
 15 17  2  0
 17 18  1  0
 17 10  1  0
M  END
>  <ref_pdb>  (398) 
c0270a

>  <inchikey>  (398) 
GDQHKUKEYJNFSW-UHFFFAOYSA-N

>  <original ID>  (398) 
GDQHKUKEYJNFSW-UHFFFAOYSA-N

>  <generation_date>  (398) 
None

>  <alias>  (398) 
None

>  <tags>  (398) 
[]

>  <ref_mols>  (398) 
c0692a,c1116a

>  <ref_url>  (398) 
None

>  <submitter_name>  (398) 
None

>  <exports>  (398) 
nan

>  <original SMILES>  (398) 
C#CCCOCC(=O)Nc1ccc(C)c(F)c1N

>  <method>  (398) 
None

>  <submitter_email>  (398) 
None

>  <HIPPO ID>  (398) 
113537

$$$$
VKLMFPUWFGTMQY-UHFFFAOYSA-N
     RDKit          3D

 18 18  0  0  0  0  0  0  0  0999 V2000
   24.7045   13.2109    9.7651 C   0  0  0  0  0  0  0  0  0  0  0  0
   23.5771   12.8095    9.8388 C   0  0  0  0  0  0  0  0  0  0  0  0
   22.1975   12.3574    9.7557 C   0  0  0  0  0  0  0  0  0  0  0  0
   21.6491   11.5986   10.9509 C   0  0  0  0  0  0  0  0  0  0  0  0
   20.2375   11.3411   10.7866 O   0  0  0  0  0  0  0  0  0  0  0  0
   19.4396   12.4453   11.1936 C   0  0  0  0  0  0  0  0  0  0  0  0
   17.9487   12.1258   11.3077 C   0  0  0  0  0  0  0  0  0  0  0  0
   17.2024   12.8821   11.9286 O   0  0  0  0  0  0  0  0  0  0  0  0
   17.5336   11.0087   10.6155 N   0  0  0  0  0  0  0  0  0  0  0  0
   16.3826   10.2506   10.9159 C   0  0  0  0  0  0  0  0  0  0  0  0
   15.8341    9.4040    9.9420 C   0  0  0  0  0  0  0  0  0  0  0  0
   16.2501    9.4389    8.6145 N   0  0  0  0  0  0  0  0  0  0  0  0
   14.9700    8.3754   10.3174 C   0  0  0  0  0  0  0  0  0  0  0  0
   14.5404    8.2728   11.6322 C   0  0  0  0  0  0  0  0  0  0  0  0
   14.9222    9.2455   12.5564 C   0  0  0  0  0  0  0  0  0  0  0  0
   14.3733    9.3399   13.9336 C   0  0  0  0  0  0  0  0  0  0  0  0
   15.8599   10.2025   12.2001 C   0  0  0  0  0  0  0  0  0  0  0  0
   16.3464   10.9647   13.1884 F   0  0  0  0  0  0  0  0  0  0  0  0
  1  2  3  0
  2  3  1  0
  3  4  1  0
  4  5  1  0
  5  6  1  0
  6  7  1  0
  7  8  2  0
  7  9  1  0
  9 10  1  0
 10 11  2  0
 11 12  1  0
 11 13  1  0
 13 14  2  0
 14 15  1  0
 15 16  1  0
 15 17  2  0
 17 18  1  0
 17 10  1  0
M  END
>  <ref_pdb>  (399) 
c0270a

>  <inchikey>  (399) 
VKLMFPUWFGTMQY-UHFFFAOYSA-N

>  <original ID>  (399) 
VKLMFPUWFGTMQY-UHFFFAOYSA-N

>  <generation_date>  (399) 
None

>  <alias>  (399) 
None

>  <tags>  (399) 
[]

>  <ref_mols>  (399) 
c0692a,c1116a

>  <ref_url>  (399) 
None

>  <submitter_name>  (399) 
None

>  <exports>  (399) 
nan

>  <original SMILES>  (399) 
C#CCCOCC(=O)Nc1c(N)ccc(C)c1F

>  <method>  (399) 
None

>  <submitter_email>  (399) 
None

>  <HIPPO ID>  (399) 
113538

$$$$
UUNJGLVTGLWFTP-UHFFFAOYSA-N
     RDKit          3D

 18 18  0  0  0  0  0  0  0  0999 V2000
   24.4888   13.3677   10.3196 C   0  0  0  0  0  0  0  0  0  0  0  0
   23.3007   13.2549   10.4391 C   0  0  0  0  0  0  0  0  0  0  0  0
   21.8490   13.1584   10.5419 C   0  0  0  0  0  0  0  0  0  0  0  0
   21.3623   11.7121   10.6769 C   0  0  0  0  0  0  0  0  0  0  0  0
   19.9440   11.5711   10.4817 O   0  0  0  0  0  0  0  0  0  0  0  0
   19.1880   12.5070   11.2312 C   0  0  0  0  0  0  0  0  0  0  0  0
   17.7132   12.1605   11.3569 C   0  0  0  0  0  0  0  0  0  0  0  0
   16.9611   12.9188   11.9649 O   0  0  0  0  0  0  0  0  0  0  0  0
   17.3415   11.0013   10.7236 N   0  0  0  0  0  0  0  0  0  0  0  0
   16.2189   10.1918   10.9925 C   0  0  0  0  0  0  0  0  0  0  0  0
   15.7599    9.3638    9.9398 C   0  0  0  0  0  0  0  0  0  0  0  0
   16.2336    9.4879    8.6375 N   0  0  0  0  0  0  0  0  0  0  0  0
   14.9282    8.2763   10.1968 C   0  0  0  0  0  0  0  0  0  0  0  0
   14.4478    8.0767   11.4698 C   0  0  0  0  0  0  0  0  0  0  0  0
   14.7499    9.0180   12.4446 C   0  0  0  0  0  0  0  0  0  0  0  0
   14.1080    8.9641   13.6117 F   0  0  0  0  0  0  0  0  0  0  0  0
   15.6447   10.0644   12.2583 C   0  0  0  0  0  0  0  0  0  0  0  0
   15.9005   10.9199   13.4590 C   0  0  0  0  0  0  0  0  0  0  0  0
  1  2  3  0
  2  3  1  0
  3  4  1  0
  4  5  1  0
  5  6  1  0
  6  7  1  0
  7  8  2  0
  7  9  1  0
  9 10  1  0
 10 11  2  0
 11 12  1  0
 11 13  1  0
 13 14  2  0
 14 15  1  0
 15 16  1  0
 15 17  2  0
 17 18  1  0
 17 10  1  0
M  END
>  <ref_pdb>  (400) 
c0270a

>  <inchikey>  (400) 
UUNJGLVTGLWFTP-UHFFFAOYSA-N

>  <original ID>  (400) 
UUNJGLVTGLWFTP-UHFFFAOYSA-N

>  <generation_date>  (400) 
None

>  <alias>  (400) 
None

>  <tags>  (400) 
[]

>  <ref_mols>  (400) 
c0692a,c1116a

>  <ref_url>  (400) 
None

>  <submitter_name>  (400) 
None

>  <exports>  (400) 
['/opt/xchem-fragalysis-2/maxwin/CHIKV_HIPPO/hippo_prod/CHIKV_prod11_recipes/Recipe_1GERJCJ_poses.sdf']

>  <original SMILES>  (400) 
C#CCCOCC(=O)Nc1c(N)ccc(F)c1C

>  <method>  (400) 
None

>  <submitter_email>  (400) 
None

>  <HIPPO ID>  (400) 
113539

$$$$
FWMXUJUCHRUBCJ-GFCCVEGCSA-N
     RDKit          3D

 18 20  0  0  0  0  0  0  0  0999 V2000
   16.4201   13.5701   11.7973 O   0  0  0  0  0  0  0  0  0  0  0  0
   15.5319   12.8043   12.1825 C   0  0  0  0  0  0  0  0  0  0  0  0
   14.2309   13.4104   12.5650 C   0  0  1  0  0  0  0  0  0  0  0  0
   13.5290   12.6742   13.6817 C   0  0  0  0  0  0  0  0  0  0  0  0
   14.0773   12.8425   15.0401 N   0  0  0  0  0  0  0  0  0  0  0  0
   14.1185   14.2897   15.3090 C   0  0  0  0  0  0  0  0  0  0  0  0
   14.9731   14.9980   14.2526 C   0  0  0  0  0  0  0  0  0  0  0  0
   14.4962   14.7946   12.9209 O   0  0  0  0  0  0  0  0  0  0  0  0
   15.7719   11.4665   12.5584 N   0  0  0  0  0  0  0  0  0  0  0  0
   17.2047   11.3118   12.5871 C   0  0  0  0  0  0  0  0  0  0  0  0
   17.8624   11.3139   11.1873 C   0  0  0  0  0  0  0  0  0  0  0  0
   16.9104   10.9995   10.1305 N   0  0  0  0  0  0  0  0  0  0  0  0
   15.8495   10.1882   10.5013 C   0  0  0  0  0  0  0  0  0  0  0  0
   15.4919    9.1213    9.6903 C   0  0  0  0  0  0  0  0  0  0  0  0
   14.7620    8.0783   10.2249 C   0  0  0  0  0  0  0  0  0  0  0  0
   14.4396    8.1090   11.5748 C   0  0  0  0  0  0  0  0  0  0  0  0
   14.6842    9.2598   12.3438 C   0  0  0  0  0  0  0  0  0  0  0  0
   15.2800   10.3690   11.7628 C   0  0  0  0  0  0  0  0  0  0  0  0
  1  2  2  0
  3  2  1  1
  3  4  1  0
  4  5  1  0
  5  6  1  0
  6  7  1  0
  7  8  1  0
  2  9  1  0
  9 10  1  0
 10 11  1  0
 11 12  1  0
 12 13  1  0
 13 14  2  0
 14 15  1  0
 15 16  2  0
 16 17  1  0
 17 18  2  0
  8  3  1  0
 18  9  1  0
 18 13  1  0
M  END
>  <ref_pdb>  (401) 
c0270a

>  <inchikey>  (401) 
FWMXUJUCHRUBCJ-GFCCVEGCSA-N

>  <original ID>  (401) 
FWMXUJUCHRUBCJ-GFCCVEGCSA-N

>  <generation_date>  (401) 
None

>  <alias>  (401) 
None

>  <tags>  (401) 
[]

>  <ref_mols>  (401) 
c0692a,c1116a

>  <ref_url>  (401) 
None

>  <submitter_name>  (401) 
None

>  <exports>  (401) 
nan

>  <original SMILES>  (401) 
O=C([C@H]1CNCCO1)N1CCNc2ccccc21

>  <method>  (401) 
None

>  <submitter_email>  (401) 
None

>  <HIPPO ID>  (401) 
113553

$$$$
QWAZLQDTCMFZKH-JTQLQIEISA-N
     RDKit          3D

 18 19  0  0  0  0  0  0  0  0999 V2000
   15.9986   11.0422   13.3908 C   0  0  0  0  0  0  0  0  0  0  0  0
   15.7213   10.1570   12.2173 C   0  0  0  0  0  0  0  0  0  0  0  0
   14.7964    9.1418   12.4382 C   0  0  0  0  0  0  0  0  0  0  0  0
   14.1447    9.1469   13.6017 F   0  0  0  0  0  0  0  0  0  0  0  0
   14.4785    8.1700   11.4989 C   0  0  0  0  0  0  0  0  0  0  0  0
   14.9491    8.3222   10.2168 C   0  0  0  0  0  0  0  0  0  0  0  0
   15.7898    9.3923    9.9210 C   0  0  0  0  0  0  0  0  0  0  0  0
   16.2376    9.4777    8.6072 N   0  0  0  0  0  0  0  0  0  0  0  0
   16.2891   10.2364   10.9450 C   0  0  0  0  0  0  0  0  0  0  0  0
   17.4363   11.0051   10.6215 N   0  0  0  0  0  0  0  0  0  0  0  0
   17.8784   12.1575   11.2356 C   0  0  0  0  0  0  0  0  0  0  0  0
   17.1184   12.9278   11.8262 O   0  0  0  0  0  0  0  0  0  0  0  0
   19.3783   12.5108   11.0826 C   0  0  2  0  0  0  0  0  0  0  0  0
   20.2767   11.3212   10.7243 C   0  0  0  0  0  0  0  0  0  0  0  0
   21.7105   11.6230   10.7077 N   0  0  0  0  0  0  0  0  0  0  0  0
   22.0839   12.2626   11.9777 C   0  0  0  0  0  0  0  0  0  0  0  0
   21.1796   13.4551   12.3145 C   0  0  0  0  0  0  0  0  0  0  0  0
   19.7982   13.0791   12.3359 O   0  0  0  0  0  0  0  0  0  0  0  0
  1  2  1  0
  2  3  2  0
  3  4  1  0
  3  5  1  0
  5  6  2  0
  6  7  1  0
  7  8  1  0
  7  9  2  0
  9 10  1  0
 10 11  1  0
 11 12  2  0
 13 11  1  1
 13 14  1  0
 14 15  1  0
 15 16  1  0
 16 17  1  0
 17 18  1  0
  9  2  1  0
 18 13  1  0
M  END
>  <ref_pdb>  (402) 
c0270a

>  <inchikey>  (402) 
QWAZLQDTCMFZKH-JTQLQIEISA-N

>  <original ID>  (402) 
QWAZLQDTCMFZKH-JTQLQIEISA-N

>  <generation_date>  (402) 
None

>  <alias>  (402) 
None

>  <tags>  (402) 
[]

>  <ref_mols>  (402) 
c0692a,c1116a

>  <ref_url>  (402) 
None

>  <submitter_name>  (402) 
None

>  <exports>  (402) 
nan

>  <original SMILES>  (402) 
Cc1c(F)ccc(N)c1NC(=O)[C@@H]1CNCCO1

>  <method>  (402) 
None

>  <submitter_email>  (402) 
None

>  <HIPPO ID>  (402) 
113620

$$$$
QWAZLQDTCMFZKH-SNVBAGLBSA-N
     RDKit          3D

 18 19  0  0  0  0  0  0  0  0999 V2000
   16.0043   11.1054   13.3914 C   0  0  0  0  0  0  0  0  0  0  0  0
   15.7464   10.2116   12.2203 C   0  0  0  0  0  0  0  0  0  0  0  0
   14.8103    9.2041   12.4374 C   0  0  0  0  0  0  0  0  0  0  0  0
   14.1408    9.2257   13.5905 F   0  0  0  0  0  0  0  0  0  0  0  0
   14.5048    8.2218   11.5066 C   0  0  0  0  0  0  0  0  0  0  0  0
   15.0020    8.3551   10.2337 C   0  0  0  0  0  0  0  0  0  0  0  0
   15.8579    9.4153    9.9398 C   0  0  0  0  0  0  0  0  0  0  0  0
   16.3179    9.4726    8.6294 N   0  0  0  0  0  0  0  0  0  0  0  0
   16.3405   10.2774   10.9575 C   0  0  0  0  0  0  0  0  0  0  0  0
   17.4972   11.0493   10.6571 N   0  0  0  0  0  0  0  0  0  0  0  0
   17.9030   12.2158   11.2699 C   0  0  0  0  0  0  0  0  0  0  0  0
   17.1169   13.0016   11.8048 O   0  0  0  0  0  0  0  0  0  0  0  0
   19.4176   12.5523   11.2699 C   0  0  1  0  0  0  0  0  0  0  0  0
   20.3406   11.3938   10.8839 C   0  0  0  0  0  0  0  0  0  0  0  0
   21.7528   11.6892   11.1548 N   0  0  0  0  0  0  0  0  0  0  0  0
   22.1247   12.9495   10.4926 C   0  0  0  0  0  0  0  0  0  0  0  0
   21.1335   14.0874   10.7951 C   0  0  0  0  0  0  0  0  0  0  0  0
   19.7720   13.7118   10.5118 O   0  0  0  0  0  0  0  0  0  0  0  0
  1  2  1  0
  2  3  2  0
  3  4  1  0
  3  5  1  0
  5  6  2  0
  6  7  1  0
  7  8  1  0
  7  9  2  0
  9 10  1  0
 10 11  1  0
 11 12  2  0
 13 11  1  6
 13 14  1  0
 14 15  1  0
 15 16  1  0
 16 17  1  0
 17 18  1  0
  9  2  1  0
 18 13  1  0
M  END
>  <ref_pdb>  (403) 
c0270a

>  <inchikey>  (403) 
QWAZLQDTCMFZKH-SNVBAGLBSA-N

>  <original ID>  (403) 
QWAZLQDTCMFZKH-SNVBAGLBSA-N

>  <generation_date>  (403) 
None

>  <alias>  (403) 
None

>  <tags>  (403) 
[]

>  <ref_mols>  (403) 
c0692a,c1116a

>  <ref_url>  (403) 
None

>  <submitter_name>  (403) 
None

>  <exports>  (403) 
nan

>  <original SMILES>  (403) 
Cc1c(F)ccc(N)c1NC(=O)[C@H]1CNCCO1

>  <method>  (403) 
None

>  <submitter_email>  (403) 
None

>  <HIPPO ID>  (403) 
113621

$$$$
XEMXHACCNGSBMQ-NSHDSACASA-N
     RDKit          3D

 18 19  0  0  0  0  0  0  0  0999 V2000
   14.4501    9.6063   14.0582 C   0  0  0  0  0  0  0  0  0  0  0  0
   14.9911    9.4306   12.6863 C   0  0  0  0  0  0  0  0  0  0  0  0
   14.5400    8.4543   11.8079 C   0  0  0  0  0  0  0  0  0  0  0  0
   14.8155    8.5639   10.4459 C   0  0  0  0  0  0  0  0  0  0  0  0
   14.0524    7.6831    9.5039 C   0  0  0  0  0  0  0  0  0  0  0  0
   15.7421    9.5182   10.0062 C   0  0  0  0  0  0  0  0  0  0  0  0
   16.1239    9.5158    8.6644 N   0  0  0  0  0  0  0  0  0  0  0  0
   16.3888   10.3347   10.9496 C   0  0  0  0  0  0  0  0  0  0  0  0
   17.5380   11.0716   10.5889 N   0  0  0  0  0  0  0  0  0  0  0  0
   18.0646   12.1127   11.3355 C   0  0  0  0  0  0  0  0  0  0  0  0
   17.3913   12.7446   12.1550 O   0  0  0  0  0  0  0  0  0  0  0  0
   19.5318   12.5065   11.0626 C   0  0  2  0  0  0  0  0  0  0  0  0
   20.4504   11.3379   10.6766 C   0  0  0  0  0  0  0  0  0  0  0  0
   21.7876   11.8091   10.3043 N   0  0  0  0  0  0  0  0  0  0  0  0
   22.2424   12.8934   11.1853 C   0  0  0  0  0  0  0  0  0  0  0  0
   21.4209   13.0208   12.4745 C   0  0  0  0  0  0  0  0  0  0  0  0
   20.0237   13.2068   12.2225 O   0  0  0  0  0  0  0  0  0  0  0  0
   15.9356   10.3455   12.2594 C   0  0  0  0  0  0  0  0  0  0  0  0
  1  2  1  0
  2  3  2  0
  3  4  1  0
  4  5  1  0
  4  6  2  0
  6  7  1  0
  6  8  1  0
  8  9  1  0
  9 10  1  0
 10 11  2  0
 12 10  1  1
 12 13  1  0
 13 14  1  0
 14 15  1  0
 15 16  1  0
 16 17  1  0
  8 18  2  0
 18  2  1  0
 17 12  1  0
M  END
>  <ref_pdb>  (404) 
c0270a

>  <inchikey>  (404) 
XEMXHACCNGSBMQ-NSHDSACASA-N

>  <original ID>  (404) 
XEMXHACCNGSBMQ-NSHDSACASA-N

>  <generation_date>  (404) 
None

>  <alias>  (404) 
None

>  <tags>  (404) 
[]

>  <ref_mols>  (404) 
c0692a,c1116a

>  <ref_url>  (404) 
None

>  <submitter_name>  (404) 
None

>  <exports>  (404) 
nan

>  <original SMILES>  (404) 
Cc1cc(C)c(N)c(NC(=O)[C@@H]2CNCCO2)c1

>  <method>  (404) 
None

>  <submitter_email>  (404) 
None

>  <HIPPO ID>  (404) 
113622

$$$$
KDLZYKHWERUZJL-VIFPVBQESA-N
     RDKit          3D

 18 19  0  0  0  0  0  0  0  0999 V2000
   14.3632    9.5079   14.0725 C   0  0  0  0  0  0  0  0  0  0  0  0
   14.9255    9.3244   12.7106 C   0  0  0  0  0  0  0  0  0  0  0  0
   14.5312    8.3102   11.8423 C   0  0  0  0  0  0  0  0  0  0  0  0
   14.9442    8.3519   10.5220 C   0  0  0  0  0  0  0  0  0  0  0  0
   15.8106    9.3592   10.0870 C   0  0  0  0  0  0  0  0  0  0  0  0
   16.2340    9.3091    8.7698 N   0  0  0  0  0  0  0  0  0  0  0  0
   16.3887   10.2337   11.0141 C   0  0  0  0  0  0  0  0  0  0  0  0
   17.5358   10.9703   10.6352 N   0  0  0  0  0  0  0  0  0  0  0  0
   17.9907   12.1022   11.2820 C   0  0  0  0  0  0  0  0  0  0  0  0
   17.2390   12.8334   11.9325 O   0  0  0  0  0  0  0  0  0  0  0  0
   19.4749   12.4877   11.0759 C   0  0  2  0  0  0  0  0  0  0  0  0
   20.4128   11.3377   10.6791 C   0  0  0  0  0  0  0  0  0  0  0  0
   21.7521   11.8304   10.3363 N   0  0  0  0  0  0  0  0  0  0  0  0
   22.1739   12.9111   11.2369 C   0  0  0  0  0  0  0  0  0  0  0  0
   21.3385   13.0014   12.5200 C   0  0  0  0  0  0  0  0  0  0  0  0
   19.9370   13.1564   12.2658 O   0  0  0  0  0  0  0  0  0  0  0  0
   15.8908   10.2358   12.3091 C   0  0  0  0  0  0  0  0  0  0  0  0
   16.4195   11.0027   13.2699 F   0  0  0  0  0  0  0  0  0  0  0  0
  1  2  1  0
  2  3  2  0
  3  4  1  0
  4  5  2  0
  5  6  1  0
  5  7  1  0
  7  8  1  0
  8  9  1  0
  9 10  2  0
 11  9  1  1
 11 12  1  0
 12 13  1  0
 13 14  1  0
 14 15  1  0
 15 16  1  0
  7 17  2  0
 17 18  1  0
 17  2  1  0
 16 11  1  0
M  END
>  <ref_pdb>  (405) 
c0270a

>  <inchikey>  (405) 
KDLZYKHWERUZJL-VIFPVBQESA-N

>  <original ID>  (405) 
KDLZYKHWERUZJL-VIFPVBQESA-N

>  <generation_date>  (405) 
None

>  <alias>  (405) 
None

>  <tags>  (405) 
[]

>  <ref_mols>  (405) 
c0692a,c1116a

>  <ref_url>  (405) 
None

>  <submitter_name>  (405) 
None

>  <exports>  (405) 
nan

>  <original SMILES>  (405) 
Cc1ccc(N)c(NC(=O)[C@@H]2CNCCO2)c1F

>  <method>  (405) 
None

>  <submitter_email>  (405) 
None

>  <HIPPO ID>  (405) 
113627

$$$$
KDLZYKHWERUZJL-SECBINFHSA-N
     RDKit          3D

 18 19  0  0  0  0  0  0  0  0999 V2000
   14.3727    9.6662   14.0666 C   0  0  0  0  0  0  0  0  0  0  0  0
   14.9533    9.4511   12.7171 C   0  0  0  0  0  0  0  0  0  0  0  0
   14.5715    8.4143   11.8710 C   0  0  0  0  0  0  0  0  0  0  0  0
   14.9967    8.4249   10.5549 C   0  0  0  0  0  0  0  0  0  0  0  0
   15.8683    9.4212   10.1048 C   0  0  0  0  0  0  0  0  0  0  0  0
   16.2979    9.3353    8.7924 N   0  0  0  0  0  0  0  0  0  0  0  0
   16.4409   10.3184   11.0170 C   0  0  0  0  0  0  0  0  0  0  0  0
   17.6026   11.0411   10.6443 N   0  0  0  0  0  0  0  0  0  0  0  0
   18.0576   12.1847   11.2725 C   0  0  0  0  0  0  0  0  0  0  0  0
   17.3041   12.9519   11.8799 O   0  0  0  0  0  0  0  0  0  0  0  0
   19.5635   12.5443   11.1420 C   0  0  1  0  0  0  0  0  0  0  0  0
   20.4701   11.3733   10.7299 C   0  0  0  0  0  0  0  0  0  0  0  0
   21.8919   11.7003   10.5882 N   0  0  0  0  0  0  0  0  0  0  0  0
   22.1578   13.1143   10.8421 C   0  0  0  0  0  0  0  0  0  0  0  0
   21.1470   14.0679   10.1871 C   0  0  0  0  0  0  0  0  0  0  0  0
   19.7724   13.6626   10.2725 O   0  0  0  0  0  0  0  0  0  0  0  0
   15.9250   10.3521   12.3047 C   0  0  0  0  0  0  0  0  0  0  0  0
   16.4442   11.1421   13.2522 F   0  0  0  0  0  0  0  0  0  0  0  0
  1  2  1  0
  2  3  2  0
  3  4  1  0
  4  5  2  0
  5  6  1  0
  5  7  1  0
  7  8  1  0
  8  9  1  0
  9 10  2  0
 11  9  1  6
 11 12  1  0
 12 13  1  0
 13 14  1  0
 14 15  1  0
 15 16  1  0
  7 17  2  0
 17 18  1  0
 17  2  1  0
 16 11  1  0
M  END
>  <ref_pdb>  (406) 
c0270a

>  <inchikey>  (406) 
KDLZYKHWERUZJL-SECBINFHSA-N

>  <original ID>  (406) 
KDLZYKHWERUZJL-SECBINFHSA-N

>  <generation_date>  (406) 
None

>  <alias>  (406) 
None

>  <tags>  (406) 
[]

>  <ref_mols>  (406) 
c0692a,c1116a

>  <ref_url>  (406) 
None

>  <submitter_name>  (406) 
None

>  <exports>  (406) 
nan

>  <original SMILES>  (406) 
Cc1ccc(N)c(NC(=O)[C@H]2CNCCO2)c1F

>  <method>  (406) 
None

>  <submitter_email>  (406) 
None

>  <HIPPO ID>  (406) 
113628

$$$$
ZZAALLUIYPOMKS-JTQLQIEISA-N
     RDKit          3D

 18 19  0  0  0  0  0  0  0  0999 V2000
   14.4002    8.8755   13.5883 C   0  0  0  0  0  0  0  0  0  0  0  0
   14.9120    9.1243   12.2105 C   0  0  0  0  0  0  0  0  0  0  0  0
   14.4937    8.3326   11.1319 C   0  0  0  0  0  0  0  0  0  0  0  0
   13.5701    7.3744   11.3031 F   0  0  0  0  0  0  0  0  0  0  0  0
   14.9762    8.5441    9.8606 C   0  0  0  0  0  0  0  0  0  0  0  0
   15.9896    9.4711    9.6826 C   0  0  0  0  0  0  0  0  0  0  0  0
   16.4494   10.2588   10.7512 C   0  0  0  0  0  0  0  0  0  0  0  0
   17.6248   11.0045   10.5064 N   0  0  0  0  0  0  0  0  0  0  0  0
   18.0587   12.1200   11.1911 C   0  0  0  0  0  0  0  0  0  0  0  0
   17.2928   12.8303   11.8528 O   0  0  0  0  0  0  0  0  0  0  0  0
   19.5473   12.5013   11.0416 C   0  0  2  0  0  0  0  0  0  0  0  0
   20.4660   11.3108   10.7385 C   0  0  0  0  0  0  0  0  0  0  0  0
   21.8941   11.6394   10.7322 N   0  0  0  0  0  0  0  0  0  0  0  0
   22.2328   12.3119   11.9941 C   0  0  0  0  0  0  0  0  0  0  0  0
   21.3148   13.5077   12.2746 C   0  0  0  0  0  0  0  0  0  0  0  0
   19.9363   13.1258   12.2781 O   0  0  0  0  0  0  0  0  0  0  0  0
   15.8205   10.1728   12.0078 C   0  0  0  0  0  0  0  0  0  0  0  0
   16.2669   10.8949   13.1402 N   0  0  0  0  0  0  0  0  0  0  0  0
  1  2  1  0
  2  3  2  0
  3  4  1  0
  3  5  1  0
  5  6  2  0
  6  7  1  0
  7  8  1  0
  8  9  1  0
  9 10  2  0
 11  9  1  1
 11 12  1  0
 12 13  1  0
 13 14  1  0
 14 15  1  0
 15 16  1  0
  7 17  2  0
 17 18  1  0
 17  2  1  0
 16 11  1  0
M  END
>  <ref_pdb>  (407) 
c0270a

>  <inchikey>  (407) 
ZZAALLUIYPOMKS-JTQLQIEISA-N

>  <original ID>  (407) 
ZZAALLUIYPOMKS-JTQLQIEISA-N

>  <generation_date>  (407) 
None

>  <alias>  (407) 
None

>  <tags>  (407) 
[]

>  <ref_mols>  (407) 
c0692a,c1116a

>  <ref_url>  (407) 
None

>  <submitter_name>  (407) 
None

>  <exports>  (407) 
nan

>  <original SMILES>  (407) 
Cc1c(F)ccc(NC(=O)[C@@H]2CNCCO2)c1N

>  <method>  (407) 
None

>  <submitter_email>  (407) 
None

>  <HIPPO ID>  (407) 
113629

$$$$
ALZSAHLTDYSBTQ-QMMMGPOBSA-N
     RDKit          3D

 18 19  0  0  0  0  0  0  0  0999 V2000
   16.2357    9.3317    8.7721 N   0  0  0  0  0  0  0  0  0  0  0  0
   15.8080    9.3758   10.0891 C   0  0  0  0  0  0  0  0  0  0  0  0
   14.9623    8.3481   10.5161 C   0  0  0  0  0  0  0  0  0  0  0  0
   14.5720    8.2817   11.8389 C   0  0  0  0  0  0  0  0  0  0  0  0
   14.9660    9.2936   12.7066 C   0  0  0  0  0  0  0  0  0  0  0  0
   14.2542    9.3661   14.4409 Br  0  0  0  0  0  0  0  0  0  0  0  0
   15.8686   10.2751   12.3160 C   0  0  0  0  0  0  0  0  0  0  0  0
   16.2968   11.1334   13.2889 O   0  0  0  0  0  0  0  0  0  0  0  0
   16.3689   10.2720   11.0166 C   0  0  0  0  0  0  0  0  0  0  0  0
   17.5210   10.9985   10.6112 N   0  0  0  0  0  0  0  0  0  0  0  0
   18.0312   12.1174   11.2283 C   0  0  0  0  0  0  0  0  0  0  0  0
   17.3030   12.8528   11.9072 O   0  0  0  0  0  0  0  0  0  0  0  0
   19.5177   12.4715   10.9992 C   0  0  2  0  0  0  0  0  0  0  0  0
   20.4190   11.2721   10.6752 C   0  0  0  0  0  0  0  0  0  0  0  0
   21.8392   11.5869   10.5162 N   0  0  0  0  0  0  0  0  0  0  0  0
   22.1950   12.8479   11.1690 C   0  0  0  0  0  0  0  0  0  0  0  0
   21.3632   13.0677   12.4373 C   0  0  0  0  0  0  0  0  0  0  0  0
   19.9613   13.1906   12.1651 O   0  0  0  0  0  0  0  0  0  0  0  0
  1  2  1  0
  2  3  2  0
  3  4  1  0
  4  5  2  0
  5  6  1  0
  5  7  1  0
  7  8  1  0
  7  9  2  0
  9 10  1  0
 10 11  1  0
 11 12  2  0
 13 11  1  1
 13 14  1  0
 14 15  1  0
 15 16  1  0
 16 17  1  0
 17 18  1  0
  9  2  1  0
 18 13  1  0
M  END
>  <ref_pdb>  (408) 
c0270a

>  <inchikey>  (408) 
ALZSAHLTDYSBTQ-QMMMGPOBSA-N

>  <original ID>  (408) 
ALZSAHLTDYSBTQ-QMMMGPOBSA-N

>  <generation_date>  (408) 
None

>  <alias>  (408) 
None

>  <tags>  (408) 
[]

>  <ref_mols>  (408) 
c0692a,c1116a

>  <ref_url>  (408) 
None

>  <submitter_name>  (408) 
None

>  <exports>  (408) 
nan

>  <original SMILES>  (408) 
Nc1ccc(Br)c(O)c1NC(=O)[C@@H]1CNCCO1

>  <method>  (408) 
None

>  <submitter_email>  (408) 
None

>  <HIPPO ID>  (408) 
113630

$$$$
ALZSAHLTDYSBTQ-MRVPVSSYSA-N
     RDKit          3D

 18 19  0  0  0  0  0  0  0  0999 V2000
   16.2332    9.4948    8.6309 N   0  0  0  0  0  0  0  0  0  0  0  0
   15.8452    9.4705    9.9663 C   0  0  0  0  0  0  0  0  0  0  0  0
   15.0003    8.4262   10.3474 C   0  0  0  0  0  0  0  0  0  0  0  0
   14.6030    8.3047   11.6666 C   0  0  0  0  0  0  0  0  0  0  0  0
   14.9973    9.2766   12.5804 C   0  0  0  0  0  0  0  0  0  0  0  0
   14.2929    9.2813   14.3221 Br  0  0  0  0  0  0  0  0  0  0  0  0
   15.8992   10.2748   12.2309 C   0  0  0  0  0  0  0  0  0  0  0  0
   16.3134   11.1082   13.2324 O   0  0  0  0  0  0  0  0  0  0  0  0
   16.4087   10.3279   10.9351 C   0  0  0  0  0  0  0  0  0  0  0  0
   17.5666   11.0810   10.5863 N   0  0  0  0  0  0  0  0  0  0  0  0
   18.0651   12.1742   11.2634 C   0  0  0  0  0  0  0  0  0  0  0  0
   17.3301   12.8941   11.9525 O   0  0  0  0  0  0  0  0  0  0  0  0
   19.5667   12.5350   11.1212 C   0  0  1  0  0  0  0  0  0  0  0  0
   20.4670   11.3602   10.7098 C   0  0  0  0  0  0  0  0  0  0  0  0
   21.8836   11.6895   10.5379 N   0  0  0  0  0  0  0  0  0  0  0  0
   22.1590   13.0991   10.8066 C   0  0  0  0  0  0  0  0  0  0  0  0
   21.1438   14.0653   10.1755 C   0  0  0  0  0  0  0  0  0  0  0  0
   19.7703   13.6505   10.2511 O   0  0  0  0  0  0  0  0  0  0  0  0
  1  2  1  0
  2  3  2  0
  3  4  1  0
  4  5  2  0
  5  6  1  0
  5  7  1  0
  7  8  1  0
  7  9  2  0
  9 10  1  0
 10 11  1  0
 11 12  2  0
 13 11  1  6
 13 14  1  0
 14 15  1  0
 15 16  1  0
 16 17  1  0
 17 18  1  0
  9  2  1  0
 18 13  1  0
M  END
>  <ref_pdb>  (409) 
c0270a

>  <inchikey>  (409) 
ALZSAHLTDYSBTQ-MRVPVSSYSA-N

>  <original ID>  (409) 
ALZSAHLTDYSBTQ-MRVPVSSYSA-N

>  <generation_date>  (409) 
None

>  <alias>  (409) 
None

>  <tags>  (409) 
[]

>  <ref_mols>  (409) 
c0692a,c1116a

>  <ref_url>  (409) 
None

>  <submitter_name>  (409) 
None

>  <exports>  (409) 
nan

>  <original SMILES>  (409) 
Nc1ccc(Br)c(O)c1NC(=O)[C@H]1CNCCO1

>  <method>  (409) 
None

>  <submitter_email>  (409) 
None

>  <HIPPO ID>  (409) 
113631

$$$$
FFVPPUCWCIFOJN-VIFPVBQESA-N
     RDKit          3D

 18 19  0  0  0  0  0  0  0  0999 V2000
   16.4942   11.0685   13.3267 N   0  0  0  0  0  0  0  0  0  0  0  0
   15.9667   10.3857   12.2166 C   0  0  0  0  0  0  0  0  0  0  0  0
   14.9764    9.4354   12.4392 C   0  0  0  0  0  0  0  0  0  0  0  0
   14.2890    9.4656   13.6170 O   0  0  0  0  0  0  0  0  0  0  0  0
   14.5381    8.5686   11.4574 C   0  0  0  0  0  0  0  0  0  0  0  0
   14.8987    8.8528   10.1609 C   0  0  0  0  0  0  0  0  0  0  0  0
   13.7135    8.3981    8.7939 Br  0  0  0  0  0  0  0  0  0  0  0  0
   15.9605    9.6913    9.8923 C   0  0  0  0  0  0  0  0  0  0  0  0
   16.5399   10.4193   10.9332 C   0  0  0  0  0  0  0  0  0  0  0  0
   17.7175   11.1175   10.6131 N   0  0  0  0  0  0  0  0  0  0  0  0
   18.1767   12.2471   11.2521 C   0  0  0  0  0  0  0  0  0  0  0  0
   17.4375   12.9698   11.9301 O   0  0  0  0  0  0  0  0  0  0  0  0
   19.6504   12.6116   11.0185 C   0  0  2  0  0  0  0  0  0  0  0  0
   20.5585   11.4007   10.7420 C   0  0  0  0  0  0  0  0  0  0  0  0
   21.9538   11.8119   10.5737 N   0  0  0  0  0  0  0  0  0  0  0  0
   22.3791   12.5193   11.7897 C   0  0  0  0  0  0  0  0  0  0  0  0
   21.4639   13.7188   12.0663 C   0  0  0  0  0  0  0  0  0  0  0  0
   20.0941   13.3231   12.1875 O   0  0  0  0  0  0  0  0  0  0  0  0
  1  2  1  0
  2  3  2  0
  3  4  1  0
  3  5  1  0
  5  6  2  0
  6  7  1  0
  6  8  1  0
  8  9  2  0
  9 10  1  0
 10 11  1  0
 11 12  2  0
 13 11  1  1
 13 14  1  0
 14 15  1  0
 15 16  1  0
 16 17  1  0
 17 18  1  0
  9  2  1  0
 18 13  1  0
M  END
>  <ref_pdb>  (410) 
c0270a

>  <inchikey>  (410) 
FFVPPUCWCIFOJN-VIFPVBQESA-N

>  <original ID>  (410) 
FFVPPUCWCIFOJN-VIFPVBQESA-N

>  <generation_date>  (410) 
None

>  <alias>  (410) 
None

>  <tags>  (410) 
[]

>  <ref_mols>  (410) 
c0692a,c1116a

>  <ref_url>  (410) 
None

>  <submitter_name>  (410) 
None

>  <exports>  (410) 
nan

>  <original SMILES>  (410) 
Nc1c(O)cc(Br)cc1NC(=O)[C@@H]1CNCCO1

>  <method>  (410) 
None

>  <submitter_email>  (410) 
None

>  <HIPPO ID>  (410) 
113632

$$$$
AVNMODZBGJQDER-NSHDSACASA-N
     RDKit          3D

 18 19  0  0  0  0  0  0  0  0999 V2000
   14.7795    9.8762    8.5658 C   0  0  0  0  0  0  0  0  0  0  0  0
   16.0378    9.2356    8.9144 N   0  0  0  0  0  0  0  0  0  0  0  0
   16.0115    9.1273   10.3202 C   0  0  0  0  0  0  0  0  0  0  0  0
   15.1539    8.1533   10.8549 C   0  0  0  0  0  0  0  0  0  0  0  0
   14.7130    8.2747   12.1571 C   0  0  0  0  0  0  0  0  0  0  0  0
   15.0837    9.4041   12.8749 C   0  0  0  0  0  0  0  0  0  0  0  0
   14.3288    9.8028   14.5291 Br  0  0  0  0  0  0  0  0  0  0  0  0
   15.9980   10.3234   12.3896 C   0  0  0  0  0  0  0  0  0  0  0  0
   16.5110   10.1699   11.1180 C   0  0  0  0  0  0  0  0  0  0  0  0
   17.5648   10.9784   10.6405 N   0  0  0  0  0  0  0  0  0  0  0  0
   18.0094   12.1283   11.2653 C   0  0  0  0  0  0  0  0  0  0  0  0
   17.2560   12.8456   11.9301 O   0  0  0  0  0  0  0  0  0  0  0  0
   19.4936   12.5122   11.0677 C   0  0  2  0  0  0  0  0  0  0  0  0
   20.4067   11.3256   10.7317 C   0  0  0  0  0  0  0  0  0  0  0  0
   21.8350   11.6469   10.7031 N   0  0  0  0  0  0  0  0  0  0  0  0
   22.2024   12.3081   11.9631 C   0  0  0  0  0  0  0  0  0  0  0  0
   21.2935   13.5041   12.2698 C   0  0  0  0  0  0  0  0  0  0  0  0
   19.9150   13.1227   12.3010 O   0  0  0  0  0  0  0  0  0  0  0  0
  1  2  1  0
  2  3  1  0
  3  4  2  0
  4  5  1  0
  5  6  2  0
  6  7  1  0
  6  8  1  0
  8  9  2  0
  9 10  1  0
 10 11  1  0
 11 12  2  0
 13 11  1  1
 13 14  1  0
 14 15  1  0
 15 16  1  0
 16 17  1  0
 17 18  1  0
  9  3  1  0
 18 13  1  0
M  END
>  <ref_pdb>  (411) 
c0270a

>  <inchikey>  (411) 
AVNMODZBGJQDER-NSHDSACASA-N

>  <original ID>  (411) 
AVNMODZBGJQDER-NSHDSACASA-N

>  <generation_date>  (411) 
None

>  <alias>  (411) 
None

>  <tags>  (411) 
[]

>  <ref_mols>  (411) 
c0692a,c1116a

>  <ref_url>  (411) 
None

>  <submitter_name>  (411) 
None

>  <exports>  (411) 
nan

>  <original SMILES>  (411) 
CNc1ccc(Br)cc1NC(=O)[C@@H]1CNCCO1

>  <method>  (411) 
None

>  <submitter_email>  (411) 
None

>  <HIPPO ID>  (411) 
113635

$$$$
AVNMODZBGJQDER-LLVKDONJSA-N
     RDKit          3D

 18 19  0  0  0  0  0  0  0  0999 V2000
   15.7710    9.0068    8.5804 C   0  0  0  0  0  0  0  0  0  0  0  0
   15.6714   10.2692    9.2329 N   0  0  0  0  0  0  0  0  0  0  0  0
   15.6725   10.0502   10.6109 C   0  0  0  0  0  0  0  0  0  0  0  0
   14.8339    9.0552   11.1473 C   0  0  0  0  0  0  0  0  0  0  0  0
   14.6964    8.9121   12.5057 C   0  0  0  0  0  0  0  0  0  0  0  0
   15.2387    9.8954   13.2991 C   0  0  0  0  0  0  0  0  0  0  0  0
   14.7656   10.0108   15.0851 Br  0  0  0  0  0  0  0  0  0  0  0  0
   16.1174   10.8433   12.8056 C   0  0  0  0  0  0  0  0  0  0  0  0
   16.4215   10.8591   11.4593 C   0  0  0  0  0  0  0  0  0  0  0  0
   17.5495   11.5444   10.9554 N   0  0  0  0  0  0  0  0  0  0  0  0
   18.2434   12.5089   11.6483 C   0  0  0  0  0  0  0  0  0  0  0  0
   17.7259   13.1715   12.5511 O   0  0  0  0  0  0  0  0  0  0  0  0
   19.7134   12.7697   11.2556 C   0  0  1  0  0  0  0  0  0  0  0  0
   20.4955   11.5074   10.8230 C   0  0  0  0  0  0  0  0  0  0  0  0
   21.7631   11.7871   10.1511 N   0  0  0  0  0  0  0  0  0  0  0  0
   22.2442   13.1330   10.4298 C   0  0  0  0  0  0  0  0  0  0  0  0
   21.1908   14.2007   10.0683 C   0  0  0  0  0  0  0  0  0  0  0  0
   19.8229   13.7964   10.2685 O   0  0  0  0  0  0  0  0  0  0  0  0
  1  2  1  0
  2  3  1  0
  3  4  2  0
  4  5  1  0
  5  6  2  0
  6  7  1  0
  6  8  1  0
  8  9  2  0
  9 10  1  0
 10 11  1  0
 11 12  2  0
 13 11  1  6
 13 14  1  0
 14 15  1  0
 15 16  1  0
 16 17  1  0
 17 18  1  0
  9  3  1  0
 18 13  1  0
M  END
>  <ref_pdb>  (412) 
c0270a

>  <inchikey>  (412) 
AVNMODZBGJQDER-LLVKDONJSA-N

>  <original ID>  (412) 
AVNMODZBGJQDER-LLVKDONJSA-N

>  <generation_date>  (412) 
None

>  <alias>  (412) 
None

>  <tags>  (412) 
[]

>  <ref_mols>  (412) 
c0692a,c1116a

>  <ref_url>  (412) 
None

>  <submitter_name>  (412) 
None

>  <exports>  (412) 
nan

>  <original SMILES>  (412) 
CNc1ccc(Br)cc1NC(=O)[C@H]1CNCCO1

>  <method>  (412) 
None

>  <submitter_email>  (412) 
None

>  <HIPPO ID>  (412) 
113636

$$$$
MVECEECSUSQSFB-QMMMGPOBSA-N
     RDKit          3D

 18 19  0  0  0  0  0  0  0  0999 V2000
   16.0029   10.7703   13.1498 N   0  0  0  0  0  0  0  0  0  0  0  0
   15.6957   10.0917   11.9390 C   0  0  0  0  0  0  0  0  0  0  0  0
   16.3609   10.2445   10.7239 C   0  0  0  0  0  0  0  0  0  0  0  0
   17.5132   11.0342   10.5167 N   0  0  0  0  0  0  0  0  0  0  0  0
   17.9842   12.0767   11.2881 C   0  0  0  0  0  0  0  0  0  0  0  0
   17.2813   12.6690   12.1106 O   0  0  0  0  0  0  0  0  0  0  0  0
   19.4463   12.5192   11.0250 C   0  0  2  0  0  0  0  0  0  0  0  0
   20.3834   11.3311   10.7510 C   0  0  0  0  0  0  0  0  0  0  0  0
   21.8080   11.6555   10.7100 N   0  0  0  0  0  0  0  0  0  0  0  0
   22.1642   12.4449   11.8948 C   0  0  0  0  0  0  0  0  0  0  0  0
   21.2546   13.6664   12.0543 C   0  0  0  0  0  0  0  0  0  0  0  0
   19.8818   13.2808   12.1618 O   0  0  0  0  0  0  0  0  0  0  0  0
   15.9448    9.4640    9.6355 C   0  0  0  0  0  0  0  0  0  0  0  0
   14.9944    8.4565    9.7819 C   0  0  0  0  0  0  0  0  0  0  0  0
   14.5155    8.1437   11.0364 C   0  0  0  0  0  0  0  0  0  0  0  0
   13.4764    6.5715   11.2270 Br  0  0  0  0  0  0  0  0  0  0  0  0
   14.8421    8.9908   12.0875 C   0  0  0  0  0  0  0  0  0  0  0  0
   14.3231    8.8539   13.3453 O   0  0  0  0  0  0  0  0  0  0  0  0
  1  2  1  0
  2  3  2  0
  3  4  1  0
  4  5  1  0
  5  6  2  0
  7  5  1  1
  7  8  1  0
  8  9  1  0
  9 10  1  0
 10 11  1  0
 11 12  1  0
  3 13  1  0
 13 14  2  0
 14 15  1  0
 15 16  1  0
 15 17  2  0
 17 18  1  0
 17  2  1  0
 12  7  1  0
M  END
>  <ref_pdb>  (413) 
c0270a

>  <inchikey>  (413) 
MVECEECSUSQSFB-QMMMGPOBSA-N

>  <original ID>  (413) 
MVECEECSUSQSFB-QMMMGPOBSA-N

>  <generation_date>  (413) 
None

>  <alias>  (413) 
None

>  <tags>  (413) 
[]

>  <ref_mols>  (413) 
c0692a,c1116a

>  <ref_url>  (413) 
None

>  <submitter_name>  (413) 
None

>  <exports>  (413) 
nan

>  <original SMILES>  (413) 
Nc1c(NC(=O)[C@@H]2CNCCO2)ccc(Br)c1O

>  <method>  (413) 
None

>  <submitter_email>  (413) 
None

>  <HIPPO ID>  (413) 
113645

$$$$
MVECEECSUSQSFB-MRVPVSSYSA-N
     RDKit          3D

 18 19  0  0  0  0  0  0  0  0999 V2000
   16.0255   11.0153   13.1084 N   0  0  0  0  0  0  0  0  0  0  0  0
   15.7816   10.2469   11.9370 C   0  0  0  0  0  0  0  0  0  0  0  0
   16.5179   10.3280   10.7520 C   0  0  0  0  0  0  0  0  0  0  0  0
   17.7100   11.0742   10.5703 N   0  0  0  0  0  0  0  0  0  0  0  0
   18.1572   12.1558   11.2970 C   0  0  0  0  0  0  0  0  0  0  0  0
   17.4114   12.8394   12.0071 O   0  0  0  0  0  0  0  0  0  0  0  0
   19.6528   12.5511   11.1615 C   0  0  1  0  0  0  0  0  0  0  0  0
   20.6039   11.3934   10.8185 C   0  0  0  0  0  0  0  0  0  0  0  0
   22.0111   11.8018   10.8886 N   0  0  0  0  0  0  0  0  0  0  0  0
   22.2519   13.0065   10.0842 C   0  0  0  0  0  0  0  0  0  0  0  0
   21.2027   14.1084   10.3225 C   0  0  0  0  0  0  0  0  0  0  0  0
   19.8533   13.6245   10.2321 O   0  0  0  0  0  0  0  0  0  0  0  0
   16.1225    9.5227    9.6719 C   0  0  0  0  0  0  0  0  0  0  0  0
   15.1306    8.5549    9.7958 C   0  0  0  0  0  0  0  0  0  0  0  0
   14.5967    8.2907   11.0361 C   0  0  0  0  0  0  0  0  0  0  0  0
   13.5798    6.7007   11.2306 Br  0  0  0  0  0  0  0  0  0  0  0  0
   14.9020    9.1593   12.0809 C   0  0  0  0  0  0  0  0  0  0  0  0
   14.3861    8.9874   13.3347 O   0  0  0  0  0  0  0  0  0  0  0  0
  1  2  1  0
  2  3  2  0
  3  4  1  0
  4  5  1  0
  5  6  2  0
  7  5  1  6
  7  8  1  0
  8  9  1  0
  9 10  1  0
 10 11  1  0
 11 12  1  0
  3 13  1  0
 13 14  2  0
 14 15  1  0
 15 16  1  0
 15 17  2  0
 17 18  1  0
 17  2  1  0
 12  7  1  0
M  END
>  <ref_pdb>  (414) 
c0270a

>  <inchikey>  (414) 
MVECEECSUSQSFB-MRVPVSSYSA-N

>  <original ID>  (414) 
MVECEECSUSQSFB-MRVPVSSYSA-N

>  <generation_date>  (414) 
None

>  <alias>  (414) 
None

>  <tags>  (414) 
[]

>  <ref_mols>  (414) 
c0692a,c1116a

>  <ref_url>  (414) 
None

>  <submitter_name>  (414) 
None

>  <exports>  (414) 
nan

>  <original SMILES>  (414) 
Nc1c(NC(=O)[C@H]2CNCCO2)ccc(Br)c1O

>  <method>  (414) 
None

>  <submitter_email>  (414) 
None

>  <HIPPO ID>  (414) 
113646

$$$$
ULJDOSMEEIJKNC-NSHDSACASA-N
     RDKit          3D

 18 19  0  0  0  0  0  0  0  0999 V2000
   14.3880    9.0938   13.8490 C   0  0  0  0  0  0  0  0  0  0  0  0
   14.8933    9.0613   12.4484 C   0  0  0  0  0  0  0  0  0  0  0  0
   15.7930   10.0836   12.1319 C   0  0  0  0  0  0  0  0  0  0  0  0
   16.3143   10.2001   10.8562 C   0  0  0  0  0  0  0  0  0  0  0  0
   17.4270   11.0243   10.5724 N   0  0  0  0  0  0  0  0  0  0  0  0
   17.9590   11.9906   11.4101 C   0  0  0  0  0  0  0  0  0  0  0  0
   17.3246   12.4827   12.3455 O   0  0  0  0  0  0  0  0  0  0  0  0
   19.4023   12.4653   11.0882 C   0  0  2  0  0  0  0  0  0  0  0  0
   20.3451   11.3080   10.7063 C   0  0  0  0  0  0  0  0  0  0  0  0
   21.7493   11.6637   10.5082 N   0  0  0  0  0  0  0  0  0  0  0  0
   22.0894   12.9324   11.1513 C   0  0  0  0  0  0  0  0  0  0  0  0
   21.2911   13.1220   12.4442 C   0  0  0  0  0  0  0  0  0  0  0  0
   19.8840   13.2337   12.2035 O   0  0  0  0  0  0  0  0  0  0  0  0
   15.7929    9.3848    9.8441 C   0  0  0  0  0  0  0  0  0  0  0  0
   16.2467    9.4536    8.5345 N   0  0  0  0  0  0  0  0  0  0  0  0
   14.9480    8.3267   10.1609 C   0  0  0  0  0  0  0  0  0  0  0  0
   14.5289    8.1338   11.4647 C   0  0  0  0  0  0  0  0  0  0  0  0
   13.5461    6.7441   11.7593 Cl  0  0  0  0  0  0  0  0  0  0  0  0
  1  2  1  0
  2  3  2  0
  3  4  1  0
  4  5  1  0
  5  6  1  0
  6  7  2  0
  8  6  1  1
  8  9  1  0
  9 10  1  0
 10 11  1  0
 11 12  1  0
 12 13  1  0
  4 14  2  0
 14 15  1  0
 14 16  1  0
 16 17  2  0
 17 18  1  0
 17  2  1  0
 13  8  1  0
M  END
>  <ref_pdb>  (415) 
c0270a

>  <inchikey>  (415) 
ULJDOSMEEIJKNC-NSHDSACASA-N

>  <original ID>  (415) 
ULJDOSMEEIJKNC-NSHDSACASA-N

>  <generation_date>  (415) 
None

>  <alias>  (415) 
None

>  <tags>  (415) 
[]

>  <ref_mols>  (415) 
c0692a,c1116a

>  <ref_url>  (415) 
None

>  <submitter_name>  (415) 
None

>  <exports>  (415) 
nan

>  <original SMILES>  (415) 
Cc1cc(NC(=O)[C@@H]2CNCCO2)c(N)cc1Cl

>  <method>  (415) 
None

>  <submitter_email>  (415) 
None

>  <HIPPO ID>  (415) 
113647

$$$$
ULJDOSMEEIJKNC-LLVKDONJSA-N
     RDKit          3D

 18 19  0  0  0  0  0  0  0  0999 V2000
   14.3993    9.2348   13.8587 C   0  0  0  0  0  0  0  0  0  0  0  0
   14.9278    9.1681   12.4679 C   0  0  0  0  0  0  0  0  0  0  0  0
   15.8332   10.1844   12.1385 C   0  0  0  0  0  0  0  0  0  0  0  0
   16.3706   10.2746   10.8665 C   0  0  0  0  0  0  0  0  0  0  0  0
   17.4995   11.0869   10.5892 N   0  0  0  0  0  0  0  0  0  0  0  0
   18.0198   12.0694   11.4145 C   0  0  0  0  0  0  0  0  0  0  0  0
   17.3637   12.6141   12.3075 O   0  0  0  0  0  0  0  0  0  0  0  0
   19.4998   12.5066   11.1975 C   0  0  1  0  0  0  0  0  0  0  0  0
   20.4204   11.3619   10.7405 C   0  0  0  0  0  0  0  0  0  0  0  0
   21.8266   11.7271   10.5481 N   0  0  0  0  0  0  0  0  0  0  0  0
   22.0708   13.1405   10.8247 C   0  0  0  0  0  0  0  0  0  0  0  0
   21.0118   14.0869   10.2353 C   0  0  0  0  0  0  0  0  0  0  0  0
   19.6526   13.6288   10.3314 O   0  0  0  0  0  0  0  0  0  0  0  0
   15.8465    9.4401    9.8684 C   0  0  0  0  0  0  0  0  0  0  0  0
   16.2816    9.4833    8.5516 N   0  0  0  0  0  0  0  0  0  0  0  0
   15.0021    8.3851   10.2003 C   0  0  0  0  0  0  0  0  0  0  0  0
   14.5767    8.2155   11.5036 C   0  0  0  0  0  0  0  0  0  0  0  0
   13.6103    6.8187   11.8195 Cl  0  0  0  0  0  0  0  0  0  0  0  0
  1  2  1  0
  2  3  2  0
  3  4  1  0
  4  5  1  0
  5  6  1  0
  6  7  2  0
  8  6  1  6
  8  9  1  0
  9 10  1  0
 10 11  1  0
 11 12  1  0
 12 13  1  0
  4 14  2  0
 14 15  1  0
 14 16  1  0
 16 17  2  0
 17 18  1  0
 17  2  1  0
 13  8  1  0
M  END
>  <ref_pdb>  (416) 
c0270a

>  <inchikey>  (416) 
ULJDOSMEEIJKNC-LLVKDONJSA-N

>  <original ID>  (416) 
ULJDOSMEEIJKNC-LLVKDONJSA-N

>  <generation_date>  (416) 
None

>  <alias>  (416) 
None

>  <tags>  (416) 
[]

>  <ref_mols>  (416) 
c0692a,c1116a

>  <ref_url>  (416) 
None

>  <submitter_name>  (416) 
None

>  <exports>  (416) 
nan

>  <original SMILES>  (416) 
Cc1cc(NC(=O)[C@H]2CNCCO2)c(N)cc1Cl

>  <method>  (416) 
None

>  <submitter_email>  (416) 
None

>  <HIPPO ID>  (416) 
113648

$$$$
LIGLITZYABUEHC-JTQLQIEISA-N
     RDKit          3D

 18 19  0  0  0  0  0  0  0  0999 V2000
   18.5273   10.6227   10.1389 C   0  0  0  0  0  0  0  0  0  0  0  0
   17.5327   11.3935   10.8203 N   0  0  0  0  0  0  0  0  0  0  0  0
   17.9521   12.5028   11.5635 C   0  0  0  0  0  0  0  0  0  0  0  0
   17.1528   13.1475   12.2550 O   0  0  0  0  0  0  0  0  0  0  0  0
   19.4257   13.0326   11.3684 C   0  0  2  0  0  0  0  0  0  0  0  0
   20.6211   12.1138   11.7127 C   0  0  0  0  0  0  0  0  0  0  0  0
   21.8416   12.6085   11.0552 N   0  0  0  0  0  0  0  0  0  0  0  0
   21.9548   14.0590   11.2754 C   0  0  0  0  0  0  0  0  0  0  0  0
   20.9679   14.6187   12.3209 C   0  0  0  0  0  0  0  0  0  0  0  0
   19.5945   14.2926   12.0489 O   0  0  0  0  0  0  0  0  0  0  0  0
   16.3206   10.6371   11.0409 C   0  0  0  0  0  0  0  0  0  0  0  0
   15.7944    9.8809    9.9595 C   0  0  0  0  0  0  0  0  0  0  0  0
   14.9478    8.7956   10.1490 C   0  0  0  0  0  0  0  0  0  0  0  0
   14.5915    8.4627   11.4392 C   0  0  0  0  0  0  0  0  0  0  0  0
   14.9653    9.3070   12.4904 C   0  0  0  0  0  0  0  0  0  0  0  0
   14.3173    8.9578   14.2262 Br  0  0  0  0  0  0  0  0  0  0  0  0
   15.7883   10.4305   12.3178 C   0  0  0  0  0  0  0  0  0  0  0  0
   16.2749   11.1021   13.4680 N   0  0  0  0  0  0  0  0  0  0  0  0
  1  2  1  0
  2  3  1  0
  3  4  2  0
  5  3  1  1
  5  6  1  0
  6  7  1  0
  7  8  1  0
  8  9  1  0
  9 10  1  0
  2 11  1  0
 11 12  2  0
 12 13  1  0
 13 14  2  0
 14 15  1  0
 15 16  1  0
 15 17  2  0
 17 18  1  0
 10  5  1  0
 17 11  1  0
M  END
>  <ref_pdb>  (417) 
c0270a

>  <inchikey>  (417) 
LIGLITZYABUEHC-JTQLQIEISA-N

>  <original ID>  (417) 
LIGLITZYABUEHC-JTQLQIEISA-N

>  <generation_date>  (417) 
None

>  <alias>  (417) 
None

>  <tags>  (417) 
[]

>  <ref_mols>  (417) 
c0692a,c1116a

>  <ref_url>  (417) 
None

>  <submitter_name>  (417) 
None

>  <exports>  (417) 
nan

>  <original SMILES>  (417) 
CN(C(=O)[C@@H]1CNCCO1)c1cccc(Br)c1N

>  <method>  (417) 
None

>  <submitter_email>  (417) 
None

>  <HIPPO ID>  (417) 
113665

$$$$
LIGLITZYABUEHC-SNVBAGLBSA-N
     RDKit          3D

 18 19  0  0  0  0  0  0  0  0999 V2000
   18.9780   10.8510   10.2685 C   0  0  0  0  0  0  0  0  0  0  0  0
   17.8709   11.5155   10.8981 N   0  0  0  0  0  0  0  0  0  0  0  0
   18.0973   12.7407   11.5342 C   0  0  0  0  0  0  0  0  0  0  0  0
   17.1817   13.3544   12.1036 O   0  0  0  0  0  0  0  0  0  0  0  0
   19.5165   13.4352   11.4764 C   0  0  1  0  0  0  0  0  0  0  0  0
   20.6556   12.6660   12.1812 C   0  0  0  0  0  0  0  0  0  0  0  0
   22.0003   13.2305   11.9948 N   0  0  0  0  0  0  0  0  0  0  0  0
   22.2455   13.4709   10.5756 C   0  0  0  0  0  0  0  0  0  0  0  0
   21.1647   14.4161   10.0616 C   0  0  0  0  0  0  0  0  0  0  0  0
   19.8712   13.8050   10.1376 O   0  0  0  0  0  0  0  0  0  0  0  0
   16.6861   10.6942   11.0822 C   0  0  0  0  0  0  0  0  0  0  0  0
   16.2615    9.8277   10.0438 C   0  0  0  0  0  0  0  0  0  0  0  0
   15.2937    8.8397   10.2203 C   0  0  0  0  0  0  0  0  0  0  0  0
   14.7488    8.6650   11.4734 C   0  0  0  0  0  0  0  0  0  0  0  0
   15.0889    9.5590   12.4891 C   0  0  0  0  0  0  0  0  0  0  0  0
   14.2867    9.3852   14.1874 Br  0  0  0  0  0  0  0  0  0  0  0  0
   16.0111   10.6071   12.3110 C   0  0  0  0  0  0  0  0  0  0  0  0
   16.4227   11.3422   13.4598 N   0  0  0  0  0  0  0  0  0  0  0  0
  1  2  1  0
  2  3  1  0
  3  4  2  0
  5  3  1  6
  5  6  1  0
  6  7  1  0
  7  8  1  0
  8  9  1  0
  9 10  1  0
  2 11  1  0
 11 12  2  0
 12 13  1  0
 13 14  2  0
 14 15  1  0
 15 16  1  0
 15 17  2  0
 17 18  1  0
 10  5  1  0
 17 11  1  0
M  END
>  <ref_pdb>  (418) 
c0270a

>  <inchikey>  (418) 
LIGLITZYABUEHC-SNVBAGLBSA-N

>  <original ID>  (418) 
LIGLITZYABUEHC-SNVBAGLBSA-N

>  <generation_date>  (418) 
None

>  <alias>  (418) 
None

>  <tags>  (418) 
[]

>  <ref_mols>  (418) 
c0692a,c1116a

>  <ref_url>  (418) 
None

>  <submitter_name>  (418) 
None

>  <exports>  (418) 
nan

>  <original SMILES>  (418) 
CN(C(=O)[C@H]1CNCCO1)c1cccc(Br)c1N

>  <method>  (418) 
None

>  <submitter_email>  (418) 
None

>  <HIPPO ID>  (418) 
113666

$$$$
LOVZEKPZPCQBEX-NSHDSACASA-N
     RDKit          3D

 18 19  0  0  0  0  0  0  0  0999 V2000
   14.3867    8.9888   13.8504 C   0  0  0  0  0  0  0  0  0  0  0  0
   14.8681    8.9900   12.4411 C   0  0  0  0  0  0  0  0  0  0  0  0
   15.7491   10.0327   12.1357 C   0  0  0  0  0  0  0  0  0  0  0  0
   16.2546   10.1845   10.8573 C   0  0  0  0  0  0  0  0  0  0  0  0
   17.3493   11.0318   10.5828 N   0  0  0  0  0  0  0  0  0  0  0  0
   17.8501   12.0046   11.4284 C   0  0  0  0  0  0  0  0  0  0  0  0
   17.1778   12.5103   12.3301 O   0  0  0  0  0  0  0  0  0  0  0  0
   19.3021   12.4683   11.1652 C   0  0  2  0  0  0  0  0  0  0  0  0
   20.2267   11.3335   10.6975 C   0  0  0  0  0  0  0  0  0  0  0  0
   21.6048   11.7920   10.5104 N   0  0  0  0  0  0  0  0  0  0  0  0
   22.0879   12.3288   11.7912 C   0  0  0  0  0  0  0  0  0  0  0  0
   21.1602   13.4414   12.2959 C   0  0  0  0  0  0  0  0  0  0  0  0
   19.7989   13.0150   12.4014 O   0  0  0  0  0  0  0  0  0  0  0  0
   15.7421    9.3822    9.8333 C   0  0  0  0  0  0  0  0  0  0  0  0
   16.1979    9.4773    8.5268 N   0  0  0  0  0  0  0  0  0  0  0  0
   14.9151    8.3062   10.1370 C   0  0  0  0  0  0  0  0  0  0  0  0
   14.5089    8.0779   11.4411 C   0  0  0  0  0  0  0  0  0  0  0  0
   13.4579    6.5198   11.7225 Br  0  0  0  0  0  0  0  0  0  0  0  0
  1  2  1  0
  2  3  2  0
  3  4  1  0
  4  5  1  0
  5  6  1  0
  6  7  2  0
  8  6  1  1
  8  9  1  0
  9 10  1  0
 10 11  1  0
 11 12  1  0
 12 13  1  0
  4 14  2  0
 14 15  1  0
 14 16  1  0
 16 17  2  0
 17 18  1  0
 17  2  1  0
 13  8  1  0
M  END
>  <ref_pdb>  (419) 
c0270a

>  <inchikey>  (419) 
LOVZEKPZPCQBEX-NSHDSACASA-N

>  <original ID>  (419) 
LOVZEKPZPCQBEX-NSHDSACASA-N

>  <generation_date>  (419) 
None

>  <alias>  (419) 
None

>  <tags>  (419) 
[]

>  <ref_mols>  (419) 
c0692a,c1116a

>  <ref_url>  (419) 
None

>  <submitter_name>  (419) 
None

>  <exports>  (419) 
nan

>  <original SMILES>  (419) 
Cc1cc(NC(=O)[C@@H]2CNCCO2)c(N)cc1Br

>  <method>  (419) 
None

>  <submitter_email>  (419) 
None

>  <HIPPO ID>  (419) 
113667

$$$$
LOVZEKPZPCQBEX-LLVKDONJSA-N
     RDKit          3D

 18 19  0  0  0  0  0  0  0  0999 V2000
   14.4016    9.2055   13.8590 C   0  0  0  0  0  0  0  0  0  0  0  0
   14.9236    9.1412   12.4654 C   0  0  0  0  0  0  0  0  0  0  0  0
   15.8225   10.1664   12.1376 C   0  0  0  0  0  0  0  0  0  0  0  0
   16.3640   10.2639   10.8678 C   0  0  0  0  0  0  0  0  0  0  0  0
   17.4896   11.0827   10.5928 N   0  0  0  0  0  0  0  0  0  0  0  0
   18.0116   12.0612   11.4218 C   0  0  0  0  0  0  0  0  0  0  0  0
   17.3584   12.5991   12.3209 O   0  0  0  0  0  0  0  0  0  0  0  0
   19.4910   12.5026   11.1995 C   0  0  1  0  0  0  0  0  0  0  0  0
   20.4108   11.3587   10.7387 C   0  0  0  0  0  0  0  0  0  0  0  0
   21.8154   11.7240   10.5409 N   0  0  0  0  0  0  0  0  0  0  0  0
   22.0618   13.1383   10.8090 C   0  0  0  0  0  0  0  0  0  0  0  0
   20.9975   14.0840   10.2287 C   0  0  0  0  0  0  0  0  0  0  0  0
   19.6394   13.6239   10.3314 O   0  0  0  0  0  0  0  0  0  0  0  0
   15.8483    9.4280    9.8675 C   0  0  0  0  0  0  0  0  0  0  0  0
   16.2919    9.4716    8.5532 N   0  0  0  0  0  0  0  0  0  0  0  0
   15.0083    8.3678   10.1956 C   0  0  0  0  0  0  0  0  0  0  0  0
   14.5826    8.1873   11.4987 C   0  0  0  0  0  0  0  0  0  0  0  0
   13.5513    6.6231   11.8213 Br  0  0  0  0  0  0  0  0  0  0  0  0
  1  2  1  0
  2  3  2  0
  3  4  1  0
  4  5  1  0
  5  6  1  0
  6  7  2  0
  8  6  1  6
  8  9  1  0
  9 10  1  0
 10 11  1  0
 11 12  1  0
 12 13  1  0
  4 14  2  0
 14 15  1  0
 14 16  1  0
 16 17  2  0
 17 18  1  0
 17  2  1  0
 13  8  1  0
M  END
>  <ref_pdb>  (420) 
c0270a

>  <inchikey>  (420) 
LOVZEKPZPCQBEX-LLVKDONJSA-N

>  <original ID>  (420) 
LOVZEKPZPCQBEX-LLVKDONJSA-N

>  <generation_date>  (420) 
None

>  <alias>  (420) 
None

>  <tags>  (420) 
[]

>  <ref_mols>  (420) 
c0692a,c1116a

>  <ref_url>  (420) 
None

>  <submitter_name>  (420) 
None

>  <exports>  (420) 
nan

>  <original SMILES>  (420) 
Cc1cc(NC(=O)[C@H]2CNCCO2)c(N)cc1Br

>  <method>  (420) 
None

>  <submitter_email>  (420) 
None

>  <HIPPO ID>  (420) 
113668

$$$$
AXIRKSHUFYFYNN-NSHDSACASA-N
     RDKit          3D

 18 18  0  0  0  0  0  0  0  0999 V2000
   21.6352   11.3029   10.3057 C   0  0  0  0  0  0  0  0  0  0  0  0
   20.2234   11.4926   10.3359 O   0  0  0  0  0  0  0  0  0  0  0  0
   19.7497   12.5635   11.1633 C   0  0  2  0  0  0  0  0  0  0  0  0
   20.1273   13.9182   10.5414 C   0  0  0  0  0  0  0  0  0  0  0  0
   20.4133   12.7042   12.5334 C   0  0  0  0  0  0  0  0  0  0  0  0
   21.4071   12.1023   12.9081 O   0  0  0  0  0  0  0  0  0  0  0  0
   19.8802   13.6708   13.3042 O   0  0  0  0  0  0  0  0  0  0  0  0
   18.2018   12.3306   11.3201 C   0  0  0  0  0  0  0  0  0  0  0  0
   17.4808   13.0831   11.9755 O   0  0  0  0  0  0  0  0  0  0  0  0
   17.7028   11.2007   10.6700 N   0  0  0  0  0  0  0  0  0  0  0  0
   16.5117   10.4942   10.9784 C   0  0  0  0  0  0  0  0  0  0  0  0
   15.8420   10.7000   12.1710 C   0  0  0  0  0  0  0  0  0  0  0  0
   14.8977    9.7774   12.5750 C   0  0  0  0  0  0  0  0  0  0  0  0
   14.1843   10.0616   13.6634 F   0  0  0  0  0  0  0  0  0  0  0  0
   14.6468    8.6125   11.8617 C   0  0  0  0  0  0  0  0  0  0  0  0
   15.1707    8.4918   10.5932 C   0  0  0  0  0  0  0  0  0  0  0  0
   16.0812    9.4449   10.1358 C   0  0  0  0  0  0  0  0  0  0  0  0
   16.3335    9.4501    8.7775 N   0  0  0  0  0  0  0  0  0  0  0  0
  1  2  1  0
  3  2  1  0
  3  4  1  6
  3  5  1  0
  5  6  2  0
  5  7  1  0
  3  8  1  0
  8  9  2  0
  8 10  1  0
 10 11  1  0
 11 12  2  0
 12 13  1  0
 13 14  1  0
 13 15  2  0
 15 16  1  0
 16 17  2  0
 17 18  1  0
 17 11  1  0
M  END
>  <ref_pdb>  (421) 
c0270a

>  <inchikey>  (421) 
AXIRKSHUFYFYNN-NSHDSACASA-N

>  <original ID>  (421) 
AXIRKSHUFYFYNN-NSHDSACASA-N

>  <generation_date>  (421) 
None

>  <alias>  (421) 
None

>  <tags>  (421) 
[]

>  <ref_mols>  (421) 
c0692a,c1116a

>  <ref_url>  (421) 
None

>  <submitter_name>  (421) 
None

>  <exports>  (421) 
['/opt/xchem-fragalysis-2/maxwin/CHIKV_HIPPO/hippo_prod/CHIKV_prod11_recipes/Recipe_1GERJCJ_poses.sdf']

>  <original SMILES>  (421) 
CO[C@](C)(C(=O)O)C(=O)Nc1cc(F)ccc1N

>  <method>  (421) 
None

>  <submitter_email>  (421) 
None

>  <HIPPO ID>  (421) 
113699

$$$$
AXIRKSHUFYFYNN-LLVKDONJSA-N
     RDKit          3D

 18 18  0  0  0  0  0  0  0  0999 V2000
   21.6866   11.0609   10.5655 C   0  0  0  0  0  0  0  0  0  0  0  0
   20.2860   11.2299   10.7392 O   0  0  0  0  0  0  0  0  0  0  0  0
   19.8303   12.5284   11.1488 C   0  0  1  0  0  0  0  0  0  0  0  0
   20.3934   12.9187   12.5317 C   0  0  0  0  0  0  0  0  0  0  0  0
   20.2811   13.7165   10.2777 C   0  0  0  0  0  0  0  0  0  0  0  0
   19.6507   14.6791    9.8871 O   0  0  0  0  0  0  0  0  0  0  0  0
   21.5933   13.6909    9.9631 O   0  0  0  0  0  0  0  0  0  0  0  0
   18.2681   12.3569   11.2745 C   0  0  0  0  0  0  0  0  0  0  0  0
   17.5756   13.1332   11.9355 O   0  0  0  0  0  0  0  0  0  0  0  0
   17.7272   11.2440   10.6229 N   0  0  0  0  0  0  0  0  0  0  0  0
   16.5282   10.5552   10.9542 C   0  0  0  0  0  0  0  0  0  0  0  0
   15.8617   10.7908   12.1429 C   0  0  0  0  0  0  0  0  0  0  0  0
   14.9201    9.8758   12.5736 C   0  0  0  0  0  0  0  0  0  0  0  0
   14.2093   10.1822   13.6577 F   0  0  0  0  0  0  0  0  0  0  0  0
   14.6726    8.6907   11.8934 C   0  0  0  0  0  0  0  0  0  0  0  0
   15.1872    8.5407   10.6246 C   0  0  0  0  0  0  0  0  0  0  0  0
   16.0890    9.4871   10.1379 C   0  0  0  0  0  0  0  0  0  0  0  0
   16.3169    9.4693    8.7744 N   0  0  0  0  0  0  0  0  0  0  0  0
  1  2  1  0
  3  2  1  0
  3  4  1  1
  3  5  1  0
  5  6  2  0
  5  7  1  0
  3  8  1  0
  8  9  2  0
  8 10  1  0
 10 11  1  0
 11 12  2  0
 12 13  1  0
 13 14  1  0
 13 15  2  0
 15 16  1  0
 16 17  2  0
 17 18  1  0
 17 11  1  0
M  END
>  <ref_pdb>  (422) 
c0270a

>  <inchikey>  (422) 
AXIRKSHUFYFYNN-LLVKDONJSA-N

>  <original ID>  (422) 
AXIRKSHUFYFYNN-LLVKDONJSA-N

>  <generation_date>  (422) 
None

>  <alias>  (422) 
None

>  <tags>  (422) 
[]

>  <ref_mols>  (422) 
c0692a,c1116a

>  <ref_url>  (422) 
None

>  <submitter_name>  (422) 
None

>  <exports>  (422) 
['/opt/xchem-fragalysis-2/maxwin/CHIKV_HIPPO/hippo_prod/CHIKV_prod11_recipes/Recipe_1GERJCJ_poses.sdf']

>  <original SMILES>  (422) 
CO[C@@](C)(C(=O)O)C(=O)Nc1cc(F)ccc1N

>  <method>  (422) 
None

>  <submitter_email>  (422) 
None

>  <HIPPO ID>  (422) 
113700

$$$$
WUZFKIXWAPWHNT-NSHDSACASA-N
     RDKit          3D

 18 18  0  0  0  0  0  0  0  0999 V2000
   21.9285   11.3350   10.2350 C   0  0  0  0  0  0  0  0  0  0  0  0
   20.5121   11.4639   10.2534 O   0  0  0  0  0  0  0  0  0  0  0  0
   20.0113   12.4945   11.1004 C   0  0  2  0  0  0  0  0  0  0  0  0
   20.3129   13.8830   10.5000 C   0  0  0  0  0  0  0  0  0  0  0  0
   20.6295   12.6107   12.4933 C   0  0  0  0  0  0  0  0  0  0  0  0
   21.5870   11.9746   12.9035 O   0  0  0  0  0  0  0  0  0  0  0  0
   20.0742   13.5708   13.2591 O   0  0  0  0  0  0  0  0  0  0  0  0
   18.4964   12.2374   11.2339 C   0  0  0  0  0  0  0  0  0  0  0  0
   17.7410   13.1234   11.6467 O   0  0  0  0  0  0  0  0  0  0  0  0
   18.0483   10.9422   10.8962 N   0  0  0  0  0  0  0  0  0  0  0  0
   16.6773   10.6374   11.0720 C   0  0  0  0  0  0  0  0  0  0  0  0
   16.0550   11.1560   12.1932 C   0  0  0  0  0  0  0  0  0  0  0  0
   14.7606   11.5733   12.0605 C   0  0  0  0  0  0  0  0  0  0  0  0
   14.0726   12.6918   13.3804 Br  0  0  0  0  0  0  0  0  0  0  0  0
   14.0763   11.3324   10.8895 C   0  0  0  0  0  0  0  0  0  0  0  0
   14.5997   10.4530    9.9471 C   0  0  0  0  0  0  0  0  0  0  0  0
   15.9177   10.0448   10.0608 C   0  0  0  0  0  0  0  0  0  0  0  0
   16.4873    9.3394    9.0138 N   0  0  0  0  0  0  0  0  0  0  0  0
  1  2  1  0
  3  2  1  0
  3  4  1  6
  3  5  1  0
  5  6  2  0
  5  7  1  0
  3  8  1  0
  8  9  2  0
  8 10  1  0
 10 11  1  0
 11 12  2  0
 12 13  1  0
 13 14  1  0
 13 15  2  0
 15 16  1  0
 16 17  2  0
 17 18  1  0
 17 11  1  0
M  END
>  <ref_pdb>  (423) 
c0270a

>  <inchikey>  (423) 
WUZFKIXWAPWHNT-NSHDSACASA-N

>  <original ID>  (423) 
WUZFKIXWAPWHNT-NSHDSACASA-N

>  <generation_date>  (423) 
None

>  <alias>  (423) 
None

>  <tags>  (423) 
[]

>  <ref_mols>  (423) 
c0692a,c1116a

>  <ref_url>  (423) 
None

>  <submitter_name>  (423) 
None

>  <exports>  (423) 
nan

>  <original SMILES>  (423) 
CO[C@](C)(C(=O)O)C(=O)Nc1cc(Br)ccc1N

>  <method>  (423) 
None

>  <submitter_email>  (423) 
None

>  <HIPPO ID>  (423) 
113711

$$$$
WUZFKIXWAPWHNT-LLVKDONJSA-N
     RDKit          3D

 18 18  0  0  0  0  0  0  0  0999 V2000
   21.6940   11.1963   10.5991 C   0  0  0  0  0  0  0  0  0  0  0  0
   20.2912   11.3031   10.7954 O   0  0  0  0  0  0  0  0  0  0  0  0
   19.7850   12.5973   11.1503 C   0  0  1  0  0  0  0  0  0  0  0  0
   20.1639   12.9891   12.5915 C   0  0  0  0  0  0  0  0  0  0  0  0
   20.3226   13.7901   10.3305 C   0  0  0  0  0  0  0  0  0  0  0  0
   19.7672   14.5112    9.5245 O   0  0  0  0  0  0  0  0  0  0  0  0
   21.6382   14.0257   10.5417 O   0  0  0  0  0  0  0  0  0  0  0  0
   18.2288   12.4047   11.1626 C   0  0  0  0  0  0  0  0  0  0  0  0
   17.4842   13.2043   11.7371 O   0  0  0  0  0  0  0  0  0  0  0  0
   17.7434   11.2439   10.5530 N   0  0  0  0  0  0  0  0  0  0  0  0
   16.5681   10.5346   10.9137 C   0  0  0  0  0  0  0  0  0  0  0  0
   16.0021   10.7280   12.1573 C   0  0  0  0  0  0  0  0  0  0  0  0
   15.0956    9.8015   12.6414 C   0  0  0  0  0  0  0  0  0  0  0  0
   14.3843   10.1541   14.3254 Br  0  0  0  0  0  0  0  0  0  0  0  0
   14.7384    8.6698   11.9203 C   0  0  0  0  0  0  0  0  0  0  0  0
   15.1701    8.5564   10.6145 C   0  0  0  0  0  0  0  0  0  0  0  0
   16.0786    9.4870   10.1053 C   0  0  0  0  0  0  0  0  0  0  0  0
   16.2837    9.4613    8.7387 N   0  0  0  0  0  0  0  0  0  0  0  0
  1  2  1  0
  3  2  1  0
  3  4  1  1
  3  5  1  0
  5  6  2  0
  5  7  1  0
  3  8  1  0
  8  9  2  0
  8 10  1  0
 10 11  1  0
 11 12  2  0
 12 13  1  0
 13 14  1  0
 13 15  2  0
 15 16  1  0
 16 17  2  0
 17 18  1  0
 17 11  1  0
M  END
>  <ref_pdb>  (424) 
c0270a

>  <inchikey>  (424) 
WUZFKIXWAPWHNT-LLVKDONJSA-N

>  <original ID>  (424) 
WUZFKIXWAPWHNT-LLVKDONJSA-N

>  <generation_date>  (424) 
None

>  <alias>  (424) 
None

>  <tags>  (424) 
[]

>  <ref_mols>  (424) 
c0692a,c1116a

>  <ref_url>  (424) 
None

>  <submitter_name>  (424) 
None

>  <exports>  (424) 
nan

>  <original SMILES>  (424) 
CO[C@@](C)(C(=O)O)C(=O)Nc1cc(Br)ccc1N

>  <method>  (424) 
None

>  <submitter_email>  (424) 
None

>  <HIPPO ID>  (424) 
113712

$$$$
GKYZUZACXFPWCY-QMMMGPOBSA-N
     RDKit          3D

 18 19  0  0  0  0  0  0  0  0999 V2000
   16.2316   10.7966   13.2212 N   0  0  0  0  0  0  0  0  0  0  0  0
   15.7811   10.1090   12.0687 C   0  0  0  0  0  0  0  0  0  0  0  0
   14.8275    9.1123   12.2713 C   0  0  0  0  0  0  0  0  0  0  0  0
   14.2112    9.1113   13.4559 F   0  0  0  0  0  0  0  0  0  0  0  0
   14.4395    8.2026   11.2930 C   0  0  0  0  0  0  0  0  0  0  0  0
   14.9333    8.3576   10.0182 C   0  0  0  0  0  0  0  0  0  0  0  0
   15.9073    9.3202    9.7960 C   0  0  0  0  0  0  0  0  0  0  0  0
   16.4155    9.3906    8.5655 F   0  0  0  0  0  0  0  0  0  0  0  0
   16.3972   10.1609   10.8145 C   0  0  0  0  0  0  0  0  0  0  0  0
   17.5580   10.9248   10.5246 N   0  0  0  0  0  0  0  0  0  0  0  0
   18.0055   12.0300   11.2201 C   0  0  0  0  0  0  0  0  0  0  0  0
   17.2540   12.7104   11.9291 O   0  0  0  0  0  0  0  0  0  0  0  0
   19.4811   12.4477   11.0307 C   0  0  2  0  0  0  0  0  0  0  0  0
   20.4450   11.3129   10.6599 C   0  0  0  0  0  0  0  0  0  0  0  0
   21.7783   11.8312   10.3317 N   0  0  0  0  0  0  0  0  0  0  0  0
   22.1632   12.9315   11.2256 C   0  0  0  0  0  0  0  0  0  0  0  0
   21.3110   13.0139   12.4986 C   0  0  0  0  0  0  0  0  0  0  0  0
   19.9077   13.1294   12.2282 O   0  0  0  0  0  0  0  0  0  0  0  0
  1  2  1  0
  2  3  2  0
  3  4  1  0
  3  5  1  0
  5  6  2  0
  6  7  1  0
  7  8  1  0
  7  9  2  0
  9 10  1  0
 10 11  1  0
 11 12  2  0
 13 11  1  1
 13 14  1  0
 14 15  1  0
 15 16  1  0
 16 17  1  0
 17 18  1  0
  9  2  1  0
 18 13  1  0
M  END
>  <ref_pdb>  (425) 
c0270a

>  <inchikey>  (425) 
GKYZUZACXFPWCY-QMMMGPOBSA-N

>  <original ID>  (425) 
GKYZUZACXFPWCY-QMMMGPOBSA-N

>  <generation_date>  (425) 
None

>  <alias>  (425) 
None

>  <tags>  (425) 
[]

>  <ref_mols>  (425) 
c0692a,c1116a

>  <ref_url>  (425) 
None

>  <submitter_name>  (425) 
None

>  <exports>  (425) 
nan

>  <original SMILES>  (425) 
Nc1c(F)ccc(F)c1NC(=O)[C@@H]1CNCCO1

>  <method>  (425) 
None

>  <submitter_email>  (425) 
None

>  <HIPPO ID>  (425) 
113846

$$$$
GKYZUZACXFPWCY-MRVPVSSYSA-N
     RDKit          3D

 18 19  0  0  0  0  0  0  0  0999 V2000
   16.1881   11.0136   13.1967 N   0  0  0  0  0  0  0  0  0  0  0  0
   15.7882   10.2585   12.0679 C   0  0  0  0  0  0  0  0  0  0  0  0
   14.8421    9.2571   12.2893 C   0  0  0  0  0  0  0  0  0  0  0  0
   14.1999    9.2937   13.4596 F   0  0  0  0  0  0  0  0  0  0  0  0
   14.4892    8.3021   11.3407 C   0  0  0  0  0  0  0  0  0  0  0  0
   15.0078    8.4133   10.0721 C   0  0  0  0  0  0  0  0  0  0  0  0
   15.9775    9.3772    9.8352 C   0  0  0  0  0  0  0  0  0  0  0  0
   16.5060    9.3980    8.6119 F   0  0  0  0  0  0  0  0  0  0  0  0
   16.4416   10.2611   10.8323 C   0  0  0  0  0  0  0  0  0  0  0  0
   17.6179   11.0080   10.5522 N   0  0  0  0  0  0  0  0  0  0  0  0
   18.0810   12.1160   11.2321 C   0  0  0  0  0  0  0  0  0  0  0  0
   17.3390   12.8467   11.9017 O   0  0  0  0  0  0  0  0  0  0  0  0
   19.5818   12.4850   11.1130 C   0  0  1  0  0  0  0  0  0  0  0  0
   20.5140   11.3354   10.6758 C   0  0  0  0  0  0  0  0  0  0  0  0
   21.8297   11.7631   10.2048 N   0  0  0  0  0  0  0  0  0  0  0  0
   22.1776   13.0835   10.7021 C   0  0  0  0  0  0  0  0  0  0  0  0
   21.1179   14.1226   10.2932 C   0  0  0  0  0  0  0  0  0  0  0  0
   19.7614   13.6485   10.2998 O   0  0  0  0  0  0  0  0  0  0  0  0
  1  2  1  0
  2  3  2  0
  3  4  1  0
  3  5  1  0
  5  6  2  0
  6  7  1  0
  7  8  1  0
  7  9  2  0
  9 10  1  0
 10 11  1  0
 11 12  2  0
 13 11  1  6
 13 14  1  0
 14 15  1  0
 15 16  1  0
 16 17  1  0
 17 18  1  0
  9  2  1  0
 18 13  1  0
M  END
>  <ref_pdb>  (426) 
c0270a

>  <inchikey>  (426) 
GKYZUZACXFPWCY-MRVPVSSYSA-N

>  <original ID>  (426) 
GKYZUZACXFPWCY-MRVPVSSYSA-N

>  <generation_date>  (426) 
None

>  <alias>  (426) 
None

>  <tags>  (426) 
[]

>  <ref_mols>  (426) 
c0692a,c1116a

>  <ref_url>  (426) 
None

>  <submitter_name>  (426) 
None

>  <exports>  (426) 
nan

>  <original SMILES>  (426) 
Nc1c(F)ccc(F)c1NC(=O)[C@H]1CNCCO1

>  <method>  (426) 
None

>  <submitter_email>  (426) 
None

>  <HIPPO ID>  (426) 
113847

$$$$
LRMRNKZDBBTSEY-NSHDSACASA-N
     RDKit          3D

 18 19  0  0  0  0  0  0  0  0999 V2000
   14.3565    9.1861   13.8497 C   0  0  0  0  0  0  0  0  0  0  0  0
   14.8941    9.1490   12.4660 C   0  0  0  0  0  0  0  0  0  0  0  0
   15.8373   10.1181   12.1484 C   0  0  0  0  0  0  0  0  0  0  0  0
   16.3428   10.2088   10.8635 C   0  0  0  0  0  0  0  0  0  0  0  0
   17.4568   11.0230   10.5707 N   0  0  0  0  0  0  0  0  0  0  0  0
   17.9528   12.0272   11.3847 C   0  0  0  0  0  0  0  0  0  0  0  0
   17.2900   12.5481   12.2846 O   0  0  0  0  0  0  0  0  0  0  0  0
   19.3866   12.5116   11.0797 C   0  0  2  0  0  0  0  0  0  0  0  0
   20.3507   11.3696   10.7158 C   0  0  0  0  0  0  0  0  0  0  0  0
   21.7079   11.8658   10.4702 N   0  0  0  0  0  0  0  0  0  0  0  0
   22.1685   12.5771   11.6716 C   0  0  0  0  0  0  0  0  0  0  0  0
   21.2023   13.7129   12.0280 C   0  0  0  0  0  0  0  0  0  0  0  0
   19.8705   13.2293   12.2289 O   0  0  0  0  0  0  0  0  0  0  0  0
   15.7979    9.3952    9.8573 C   0  0  0  0  0  0  0  0  0  0  0  0
   16.2456    9.4474    8.5452 N   0  0  0  0  0  0  0  0  0  0  0  0
   14.9082    8.3789   10.1823 C   0  0  0  0  0  0  0  0  0  0  0  0
   14.4731    8.2516   11.4835 C   0  0  0  0  0  0  0  0  0  0  0  0
   13.5600    7.3068   11.7514 F   0  0  0  0  0  0  0  0  0  0  0  0
  1  2  1  0
  2  3  2  0
  3  4  1  0
  4  5  1  0
  5  6  1  0
  6  7  2  0
  8  6  1  1
  8  9  1  0
  9 10  1  0
 10 11  1  0
 11 12  1  0
 12 13  1  0
  4 14  2  0
 14 15  1  0
 14 16  1  0
 16 17  2  0
 17 18  1  0
 17  2  1  0
 13  8  1  0
M  END
>  <ref_pdb>  (427) 
c0270a

>  <inchikey>  (427) 
LRMRNKZDBBTSEY-NSHDSACASA-N

>  <original ID>  (427) 
LRMRNKZDBBTSEY-NSHDSACASA-N

>  <generation_date>  (427) 
None

>  <alias>  (427) 
None

>  <tags>  (427) 
[]

>  <ref_mols>  (427) 
c0692a,c1116a

>  <ref_url>  (427) 
None

>  <submitter_name>  (427) 
None

>  <exports>  (427) 
nan

>  <original SMILES>  (427) 
Cc1cc(NC(=O)[C@@H]2CNCCO2)c(N)cc1F

>  <method>  (427) 
None

>  <submitter_email>  (427) 
None

>  <HIPPO ID>  (427) 
113869

$$$$
LRMRNKZDBBTSEY-LLVKDONJSA-N
     RDKit          3D

 18 19  0  0  0  0  0  0  0  0999 V2000
   14.3751    9.4473   13.8400 C   0  0  0  0  0  0  0  0  0  0  0  0
   14.9491    9.3339   12.4750 C   0  0  0  0  0  0  0  0  0  0  0  0
   15.9125   10.2772   12.1299 C   0  0  0  0  0  0  0  0  0  0  0  0
   16.4470   10.3013   10.8523 C   0  0  0  0  0  0  0  0  0  0  0  0
   17.6000   11.0726   10.5630 N   0  0  0  0  0  0  0  0  0  0  0  0
   18.0564   12.1339   11.3244 C   0  0  0  0  0  0  0  0  0  0  0  0
   17.3307   12.7601   12.1041 O   0  0  0  0  0  0  0  0  0  0  0  0
   19.5434   12.5582   11.1873 C   0  0  1  0  0  0  0  0  0  0  0  0
   20.4979   11.4047   10.8628 C   0  0  0  0  0  0  0  0  0  0  0  0
   21.9026   11.7947   11.0286 N   0  0  0  0  0  0  0  0  0  0  0  0
   22.1879   12.9981   10.2324 C   0  0  0  0  0  0  0  0  0  0  0  0
   21.1448   14.1140   10.4369 C   0  0  0  0  0  0  0  0  0  0  0  0
   19.7901   13.6450   10.2903 O   0  0  0  0  0  0  0  0  0  0  0  0
   15.8890    9.4577    9.8762 C   0  0  0  0  0  0  0  0  0  0  0  0
   16.3064    9.4663    8.5540 N   0  0  0  0  0  0  0  0  0  0  0  0
   14.9886    8.4609   10.2324 C   0  0  0  0  0  0  0  0  0  0  0  0
   14.5414    8.3896   11.5314 C   0  0  0  0  0  0  0  0  0  0  0  0
   13.6356    7.4471   11.8303 F   0  0  0  0  0  0  0  0  0  0  0  0
  1  2  1  0
  2  3  2  0
  3  4  1  0
  4  5  1  0
  5  6  1  0
  6  7  2  0
  8  6  1  6
  8  9  1  0
  9 10  1  0
 10 11  1  0
 11 12  1  0
 12 13  1  0
  4 14  2  0
 14 15  1  0
 14 16  1  0
 16 17  2  0
 17 18  1  0
 17  2  1  0
 13  8  1  0
M  END
>  <ref_pdb>  (428) 
c0270a

>  <inchikey>  (428) 
LRMRNKZDBBTSEY-LLVKDONJSA-N

>  <original ID>  (428) 
LRMRNKZDBBTSEY-LLVKDONJSA-N

>  <generation_date>  (428) 
None

>  <alias>  (428) 
None

>  <tags>  (428) 
[]

>  <ref_mols>  (428) 
c0692a,c1116a

>  <ref_url>  (428) 
None

>  <submitter_name>  (428) 
None

>  <exports>  (428) 
nan

>  <original SMILES>  (428) 
Cc1cc(NC(=O)[C@H]2CNCCO2)c(N)cc1F

>  <method>  (428) 
None

>  <submitter_email>  (428) 
None

>  <HIPPO ID>  (428) 
113870

$$$$
UXFPJRXNQLTSHE-UHFFFAOYSA-N
     RDKit          3D

 19 19  0  0  0  0  0  0  0  0999 V2000
   18.5099   10.4310   10.3449 C   0  0  0  0  0  0  0  0  0  0  0  0
   17.4613   11.3220   10.7482 N   0  0  0  0  0  0  0  0  0  0  0  0
   17.7852   12.5229   11.3904 C   0  0  0  0  0  0  0  0  0  0  0  0
   16.9402   13.2242   11.9535 O   0  0  0  0  0  0  0  0  0  0  0  0
   19.2460   13.0847   11.3497 C   0  0  0  0  0  0  0  0  0  0  0  0
   19.5015   14.1608   11.8632 O   0  0  0  0  0  0  0  0  0  0  0  0
   20.1298   12.3171   10.6988 O   0  0  0  0  0  0  0  0  0  0  0  0
   21.5541   12.5868   10.6984 C   0  0  0  0  0  0  0  0  0  0  0  0
   22.0934   12.7442   12.1147 C   0  0  0  0  0  0  0  0  0  0  0  0
   22.1962   11.3386   10.0944 C   0  0  0  0  0  0  0  0  0  0  0  0
   21.9038   13.8252    9.8726 C   0  0  0  0  0  0  0  0  0  0  0  0
   16.2236   10.6212   10.9417 C   0  0  0  0  0  0  0  0  0  0  0  0
   15.7455    9.8264    9.8706 C   0  0  0  0  0  0  0  0  0  0  0  0
   14.9125    8.7367   10.0876 C   0  0  0  0  0  0  0  0  0  0  0  0
   14.5621    8.4251   11.3889 C   0  0  0  0  0  0  0  0  0  0  0  0
   14.9234    9.2914   12.4284 C   0  0  0  0  0  0  0  0  0  0  0  0
   14.3343    8.9399   14.1843 Br  0  0  0  0  0  0  0  0  0  0  0  0
   15.7034   10.4354   12.2275 C   0  0  0  0  0  0  0  0  0  0  0  0
   16.1872   11.1553   13.3522 N   0  0  0  0  0  0  0  0  0  0  0  0
  1  2  1  0
  2  3  1  0
  3  4  2  0
  3  5  1  0
  5  6  2  0
  5  7  1  0
  7  8  1  0
  8  9  1  0
  8 10  1  0
  8 11  1  0
  2 12  1  0
 12 13  2  0
 13 14  1  0
 14 15  2  0
 15 16  1  0
 16 17  1  0
 16 18  2  0
 18 19  1  0
 18 12  1  0
M  END
>  <ref_pdb>  (429) 
c0270a

>  <inchikey>  (429) 
UXFPJRXNQLTSHE-UHFFFAOYSA-N

>  <original ID>  (429) 
UXFPJRXNQLTSHE-UHFFFAOYSA-N

>  <generation_date>  (429) 
None

>  <alias>  (429) 
None

>  <tags>  (429) 
[]

>  <ref_mols>  (429) 
c0692a,c1116a

>  <ref_url>  (429) 
None

>  <submitter_name>  (429) 
None

>  <exports>  (429) 
nan

>  <original SMILES>  (429) 
CN(C(=O)C(=O)OC(C)(C)C)c1cccc(Br)c1N

>  <method>  (429) 
None

>  <submitter_email>  (429) 
None

>  <HIPPO ID>  (429) 
113877

$$$$
ZLFBUNCPBFCDGW-UHFFFAOYSA-N
     RDKit          3D

 19 19  0  0  0  0  0  0  0  0999 V2000
   13.5792    6.8458   11.6109 C   0  0  0  0  0  0  0  0  0  0  0  0
   14.4369    8.0466   11.3629 C   0  0  0  0  0  0  0  0  0  0  0  0
   14.9309    8.2738   10.0909 C   0  0  0  0  0  0  0  0  0  0  0  0
   15.7771    9.3523    9.8368 C   0  0  0  0  0  0  0  0  0  0  0  0
   16.2775    9.4555    8.5493 N   0  0  0  0  0  0  0  0  0  0  0  0
   16.2341   10.1608   10.8877 C   0  0  0  0  0  0  0  0  0  0  0  0
   17.3208   11.0342   10.6646 N   0  0  0  0  0  0  0  0  0  0  0  0
   17.7980   11.9625   11.5729 C   0  0  0  0  0  0  0  0  0  0  0  0
   17.2582   12.3173   12.6144 O   0  0  0  0  0  0  0  0  0  0  0  0
   19.1443   12.6038   11.2385 C   0  0  0  0  0  0  0  0  0  0  0  0
   19.2870   13.8103   11.2602 O   0  0  0  0  0  0  0  0  0  0  0  0
   20.0713   11.6590   11.0081 O   0  0  0  0  0  0  0  0  0  0  0  0
   21.4852   12.0033   11.0066 C   0  0  0  0  0  0  0  0  0  0  0  0
   22.1314   10.9477   10.1393 C   0  0  0  0  0  0  0  0  0  0  0  0
   22.0589   11.8618   12.4118 C   0  0  0  0  0  0  0  0  0  0  0  0
   21.8482   13.3886   10.4758 C   0  0  0  0  0  0  0  0  0  0  0  0
   15.6514   10.0142   12.1315 C   0  0  0  0  0  0  0  0  0  0  0  0
   14.7686    8.9740   12.3494 C   0  0  0  0  0  0  0  0  0  0  0  0
   14.1919    8.9428   13.5490 F   0  0  0  0  0  0  0  0  0  0  0  0
  1  2  1  0
  2  3  2  0
  3  4  1  0
  4  5  1  0
  4  6  2  0
  6  7  1  0
  7  8  1  0
  8  9  2  0
  8 10  1  0
 10 11  2  0
 10 12  1  0
 12 13  1  0
 13 14  1  0
 13 15  1  0
 13 16  1  0
  6 17  1  0
 17 18  2  0
 18 19  1  0
 18  2  1  0
M  END
>  <ref_pdb>  (430) 
c0270a

>  <inchikey>  (430) 
ZLFBUNCPBFCDGW-UHFFFAOYSA-N

>  <original ID>  (430) 
ZLFBUNCPBFCDGW-UHFFFAOYSA-N

>  <generation_date>  (430) 
None

>  <alias>  (430) 
None

>  <tags>  (430) 
[]

>  <ref_mols>  (430) 
c0692a,c1116a

>  <ref_url>  (430) 
None

>  <submitter_name>  (430) 
None

>  <exports>  (430) 
nan

>  <original SMILES>  (430) 
Cc1cc(N)c(NC(=O)C(=O)OC(C)(C)C)cc1F

>  <method>  (430) 
None

>  <submitter_email>  (430) 
None

>  <HIPPO ID>  (430) 
113947

$$$$
BXCGWFMWXNPPHY-UHFFFAOYSA-N
     RDKit          3D

 19 19  0  0  0  0  0  0  0  0999 V2000
   15.9109   10.9867   13.5096 C   0  0  0  0  0  0  0  0  0  0  0  0
   15.6796   10.1042   12.3231 C   0  0  0  0  0  0  0  0  0  0  0  0
   14.7626    9.0774   12.5216 C   0  0  0  0  0  0  0  0  0  0  0  0
   14.0786    9.0837   13.6664 F   0  0  0  0  0  0  0  0  0  0  0  0
   14.4744    8.1030   11.5768 C   0  0  0  0  0  0  0  0  0  0  0  0
   14.9991    8.2436   10.3151 C   0  0  0  0  0  0  0  0  0  0  0  0
   15.8929    9.2832   10.0535 C   0  0  0  0  0  0  0  0  0  0  0  0
   16.2411    9.4702    8.7287 N   0  0  0  0  0  0  0  0  0  0  0  0
   16.2885   10.1900   11.0682 C   0  0  0  0  0  0  0  0  0  0  0  0
   17.4081   11.0160   10.7922 N   0  0  0  0  0  0  0  0  0  0  0  0
   17.7099   12.2233   11.3907 C   0  0  0  0  0  0  0  0  0  0  0  0
   16.9143   12.9525   11.9706 O   0  0  0  0  0  0  0  0  0  0  0  0
   19.1621   12.7197   11.2631 C   0  0  0  0  0  0  0  0  0  0  0  0
   19.4692   13.8613   11.5538 O   0  0  0  0  0  0  0  0  0  0  0  0
   19.9822   11.7528   10.8226 O   0  0  0  0  0  0  0  0  0  0  0  0
   21.4108   12.0229   10.7436 C   0  0  0  0  0  0  0  0  0  0  0  0
   22.0572   11.9167   12.1179 C   0  0  0  0  0  0  0  0  0  0  0  0
   21.9470   10.8724    9.9289 C   0  0  0  0  0  0  0  0  0  0  0  0
   21.7780   13.3622   10.0828 C   0  0  0  0  0  0  0  0  0  0  0  0
  1  2  1  0
  2  3  2  0
  3  4  1  0
  3  5  1  0
  5  6  2  0
  6  7  1  0
  7  8  1  0
  7  9  2  0
  9 10  1  0
 10 11  1  0
 11 12  2  0
 11 13  1  0
 13 14  2  0
 13 15  1  0
 15 16  1  0
 16 17  1  0
 16 18  1  0
 16 19  1  0
  9  2  1  0
M  END
>  <ref_pdb>  (431) 
c0270a

>  <inchikey>  (431) 
BXCGWFMWXNPPHY-UHFFFAOYSA-N

>  <original ID>  (431) 
BXCGWFMWXNPPHY-UHFFFAOYSA-N

>  <generation_date>  (431) 
None

>  <alias>  (431) 
None

>  <tags>  (431) 
[]

>  <ref_mols>  (431) 
c0692a,c1116a

>  <ref_url>  (431) 
None

>  <submitter_name>  (431) 
None

>  <exports>  (431) 
['/opt/xchem-fragalysis-2/maxwin/CHIKV_HIPPO/hippo_prod/CHIKV_prod11_recipes/Recipe_1GERJCJ_poses.sdf']

>  <original SMILES>  (431) 
Cc1c(F)ccc(N)c1NC(=O)C(=O)OC(C)(C)C

>  <method>  (431) 
None

>  <submitter_email>  (431) 
None

>  <HIPPO ID>  (431) 
113950

$$$$
MXXZVDJVSILZAW-UHFFFAOYSA-N
     RDKit          3D

 19 19  0  0  0  0  0  0  0  0999 V2000
   14.4157    9.3914   14.0852 C   0  0  0  0  0  0  0  0  0  0  0  0
   14.9479    9.2865   12.7030 C   0  0  0  0  0  0  0  0  0  0  0  0
   14.5078    8.3464   11.7846 C   0  0  0  0  0  0  0  0  0  0  0  0
   14.7922    8.5155   10.4299 C   0  0  0  0  0  0  0  0  0  0  0  0
   14.0264    7.6719    9.4585 C   0  0  0  0  0  0  0  0  0  0  0  0
   15.7115    9.4957   10.0272 C   0  0  0  0  0  0  0  0  0  0  0  0
   16.1071    9.5368    8.6907 N   0  0  0  0  0  0  0  0  0  0  0  0
   16.3265   10.2977   11.0019 C   0  0  0  0  0  0  0  0  0  0  0  0
   17.4265   11.1190   10.6763 N   0  0  0  0  0  0  0  0  0  0  0  0
   17.8666   12.1620   11.4767 C   0  0  0  0  0  0  0  0  0  0  0  0
   17.2713   12.6537   12.4309 O   0  0  0  0  0  0  0  0  0  0  0  0
   19.2080   12.7913   11.1346 C   0  0  0  0  0  0  0  0  0  0  0  0
   19.3745   13.9931   11.2327 O   0  0  0  0  0  0  0  0  0  0  0  0
   20.1280   11.8651   10.8321 O   0  0  0  0  0  0  0  0  0  0  0  0
   21.5201   12.2633   10.9338 C   0  0  0  0  0  0  0  0  0  0  0  0
   22.2941   11.1184   10.3187 C   0  0  0  0  0  0  0  0  0  0  0  0
   21.9206   12.3650   12.4054 C   0  0  0  0  0  0  0  0  0  0  0  0
   21.8943   13.5698   10.2152 C   0  0  0  0  0  0  0  0  0  0  0  0
   15.8697   10.2381   12.3111 C   0  0  0  0  0  0  0  0  0  0  0  0
  1  2  1  0
  2  3  2  0
  3  4  1  0
  4  5  1  0
  4  6  2  0
  6  7  1  0
  6  8  1  0
  8  9  1  0
  9 10  1  0
 10 11  2  0
 10 12  1  0
 12 13  2  0
 12 14  1  0
 14 15  1  0
 15 16  1  0
 15 17  1  0
 15 18  1  0
  8 19  2  0
 19  2  1  0
M  END
>  <ref_pdb>  (432) 
c0270a

>  <inchikey>  (432) 
MXXZVDJVSILZAW-UHFFFAOYSA-N

>  <original ID>  (432) 
MXXZVDJVSILZAW-UHFFFAOYSA-N

>  <generation_date>  (432) 
None

>  <alias>  (432) 
None

>  <tags>  (432) 
[]

>  <ref_mols>  (432) 
c0692a,c1116a

>  <ref_url>  (432) 
None

>  <submitter_name>  (432) 
None

>  <exports>  (432) 
nan

>  <original SMILES>  (432) 
Cc1cc(C)c(N)c(NC(=O)C(=O)OC(C)(C)C)c1

>  <method>  (432) 
None

>  <submitter_email>  (432) 
None

>  <HIPPO ID>  (432) 
113956

$$$$
AGCFLUDZASWBKL-UHFFFAOYSA-N
     RDKit          3D

 19 19  0  0  0  0  0  0  0  0999 V2000
   13.2287    9.1559    9.0096 C   0  0  0  0  0  0  0  0  0  0  0  0
   14.3898    9.7787    9.7128 C   0  0  0  0  0  0  0  0  0  0  0  0
   15.6088    9.1827    9.5127 C   0  0  0  0  0  0  0  0  0  0  0  0
   16.7223    9.7324   10.1048 C   0  0  0  0  0  0  0  0  0  0  0  0
   16.6510   10.7796   11.0064 C   0  0  0  0  0  0  0  0  0  0  0  0
   17.8864   11.3363   11.3341 N   0  0  0  0  0  0  0  0  0  0  0  0
   18.0957   12.6300   11.7445 C   0  0  0  0  0  0  0  0  0  0  0  0
   17.2759   13.4204   12.1856 O   0  0  0  0  0  0  0  0  0  0  0  0
   19.5443   13.0851   11.5459 C   0  0  0  0  0  0  0  0  0  0  0  0
   19.9217   14.2114   11.7940 O   0  0  0  0  0  0  0  0  0  0  0  0
   20.2543   12.0634   11.0262 O   0  0  0  0  0  0  0  0  0  0  0  0
   21.6764   12.2338   10.8450 C   0  0  0  0  0  0  0  0  0  0  0  0
   22.0991   10.9538   10.1518 C   0  0  0  0  0  0  0  0  0  0  0  0
   22.0296   13.4505    9.9798 C   0  0  0  0  0  0  0  0  0  0  0  0
   22.3740   12.3032   12.2032 C   0  0  0  0  0  0  0  0  0  0  0  0
   15.4228   11.2830   11.3681 C   0  0  0  0  0  0  0  0  0  0  0  0
   15.1839   12.0093   12.5498 N   0  0  0  0  0  0  0  0  0  0  0  0
   14.3428   10.8588   10.6091 C   0  0  0  0  0  0  0  0  0  0  0  0
   13.2575   11.6348   10.7262 F   0  0  0  0  0  0  0  0  0  0  0  0
  1  2  1  0
  2  3  2  0
  3  4  1  0
  4  5  2  0
  5  6  1  0
  6  7  1  0
  7  8  2  0
  7  9  1  0
  9 10  2  0
  9 11  1  0
 11 12  1  0
 12 13  1  0
 12 14  1  0
 12 15  1  0
  5 16  1  0
 16 17  1  0
 16 18  2  0
 18 19  1  0
 18  2  1  0
M  END
>  <ref_pdb>  (433) 
c0270a

>  <inchikey>  (433) 
AGCFLUDZASWBKL-UHFFFAOYSA-N

>  <original ID>  (433) 
AGCFLUDZASWBKL-UHFFFAOYSA-N

>  <generation_date>  (433) 
None

>  <alias>  (433) 
None

>  <tags>  (433) 
[]

>  <ref_mols>  (433) 
c0692a,c1116a

>  <ref_url>  (433) 
None

>  <submitter_name>  (433) 
None

>  <exports>  (433) 
nan

>  <original SMILES>  (433) 
Cc1ccc(NC(=O)C(=O)OC(C)(C)C)c(N)c1F

>  <method>  (433) 
None

>  <submitter_email>  (433) 
None

>  <HIPPO ID>  (433) 
113961

$$$$
XBSHQRMOILHOTR-UHFFFAOYSA-N
     RDKit          3D

 19 19  0  0  0  0  0  0  0  0999 V2000
   14.3755    9.0596   13.9122 C   0  0  0  0  0  0  0  0  0  0  0  0
   14.9061    9.0465   12.5252 C   0  0  0  0  0  0  0  0  0  0  0  0
   14.4958    8.1458   11.5448 C   0  0  0  0  0  0  0  0  0  0  0  0
   14.9188    8.3263   10.2361 C   0  0  0  0  0  0  0  0  0  0  0  0
   15.7871    9.3710    9.9113 C   0  0  0  0  0  0  0  0  0  0  0  0
   16.1951    9.4715    8.5878 N   0  0  0  0  0  0  0  0  0  0  0  0
   16.3435   10.1598   10.9253 C   0  0  0  0  0  0  0  0  0  0  0  0
   17.4497   10.9979   10.6510 N   0  0  0  0  0  0  0  0  0  0  0  0
   17.7387   12.1314   11.3921 C   0  0  0  0  0  0  0  0  0  0  0  0
   16.9540   12.7177   12.1306 O   0  0  0  0  0  0  0  0  0  0  0  0
   19.1215   12.7645   11.2119 C   0  0  0  0  0  0  0  0  0  0  0  0
   19.3009   13.9361   11.4966 O   0  0  0  0  0  0  0  0  0  0  0  0
   20.0484   11.8998   10.7637 O   0  0  0  0  0  0  0  0  0  0  0  0
   21.4389   12.3291   10.8440 C   0  0  0  0  0  0  0  0  0  0  0  0
   21.9013   12.3159   12.3023 C   0  0  0  0  0  0  0  0  0  0  0  0
   22.2379   11.2819   10.0949 C   0  0  0  0  0  0  0  0  0  0  0  0
   21.7289   13.7016   10.2144 C   0  0  0  0  0  0  0  0  0  0  0  0
   15.8501   10.0123   12.2162 C   0  0  0  0  0  0  0  0  0  0  0  0
   16.3761   10.6858   13.2483 F   0  0  0  0  0  0  0  0  0  0  0  0
  1  2  1  0
  2  3  2  0
  3  4  1  0
  4  5  2  0
  5  6  1  0
  5  7  1  0
  7  8  1  0
  8  9  1  0
  9 10  2  0
  9 11  1  0
 11 12  2  0
 11 13  1  0
 13 14  1  0
 14 15  1  0
 14 16  1  0
 14 17  1  0
  7 18  2  0
 18 19  1  0
 18  2  1  0
M  END
>  <ref_pdb>  (434) 
c0270a

>  <inchikey>  (434) 
XBSHQRMOILHOTR-UHFFFAOYSA-N

>  <original ID>  (434) 
XBSHQRMOILHOTR-UHFFFAOYSA-N

>  <generation_date>  (434) 
None

>  <alias>  (434) 
None

>  <tags>  (434) 
[]

>  <ref_mols>  (434) 
c0692a,c1116a

>  <ref_url>  (434) 
None

>  <submitter_name>  (434) 
None

>  <exports>  (434) 
nan

>  <original SMILES>  (434) 
Cc1ccc(N)c(NC(=O)C(=O)OC(C)(C)C)c1F

>  <method>  (434) 
None

>  <submitter_email>  (434) 
None

>  <HIPPO ID>  (434) 
113962

$$$$
BLIYUHUMADASHE-UHFFFAOYSA-N
     RDKit          3D

 19 19  0  0  0  0  0  0  0  0999 V2000
   14.3695    8.6805   13.5703 C   0  0  0  0  0  0  0  0  0  0  0  0
   14.8756    9.0261   12.2121 C   0  0  0  0  0  0  0  0  0  0  0  0
   14.4838    8.2828   11.0913 C   0  0  0  0  0  0  0  0  0  0  0  0
   13.5603    7.3159   11.2032 F   0  0  0  0  0  0  0  0  0  0  0  0
   14.9917    8.5556    9.8416 C   0  0  0  0  0  0  0  0  0  0  0  0
   15.9931    9.5062    9.7230 C   0  0  0  0  0  0  0  0  0  0  0  0
   16.3948   10.2741   10.8265 C   0  0  0  0  0  0  0  0  0  0  0  0
   17.5265   11.0937   10.6411 N   0  0  0  0  0  0  0  0  0  0  0  0
   17.8476   12.2244   11.3664 C   0  0  0  0  0  0  0  0  0  0  0  0
   17.0860   12.8544   12.0950 O   0  0  0  0  0  0  0  0  0  0  0  0
   19.2741   12.7549   11.2005 C   0  0  0  0  0  0  0  0  0  0  0  0
   19.5712   13.9026   11.4707 O   0  0  0  0  0  0  0  0  0  0  0  0
   20.0843   11.7807   10.7639 O   0  0  0  0  0  0  0  0  0  0  0  0
   21.5137   12.0108   10.7568 C   0  0  0  0  0  0  0  0  0  0  0  0
   22.0661   12.1233   12.1758 C   0  0  0  0  0  0  0  0  0  0  0  0
   22.0472   10.7374   10.1617 C   0  0  0  0  0  0  0  0  0  0  0  0
   21.9746   13.1725    9.8711 C   0  0  0  0  0  0  0  0  0  0  0  0
   15.7498   10.1116   12.0690 C   0  0  0  0  0  0  0  0  0  0  0  0
   16.1569   10.7988   13.2393 N   0  0  0  0  0  0  0  0  0  0  0  0
  1  2  1  0
  2  3  2  0
  3  4  1  0
  3  5  1  0
  5  6  2  0
  6  7  1  0
  7  8  1  0
  8  9  1  0
  9 10  2  0
  9 11  1  0
 11 12  2  0
 11 13  1  0
 13 14  1  0
 14 15  1  0
 14 16  1  0
 14 17  1  0
  7 18  2  0
 18 19  1  0
 18  2  1  0
M  END
>  <ref_pdb>  (435) 
c0270a

>  <inchikey>  (435) 
BLIYUHUMADASHE-UHFFFAOYSA-N

>  <original ID>  (435) 
BLIYUHUMADASHE-UHFFFAOYSA-N

>  <generation_date>  (435) 
None

>  <alias>  (435) 
None

>  <tags>  (435) 
[]

>  <ref_mols>  (435) 
c0692a,c1116a

>  <ref_url>  (435) 
None

>  <submitter_name>  (435) 
None

>  <exports>  (435) 
['/opt/xchem-fragalysis-2/maxwin/CHIKV_HIPPO/hippo_prod/CHIKV_prod11_recipes/Recipe_1GERJCJ_poses.sdf']

>  <original SMILES>  (435) 
Cc1c(F)ccc(NC(=O)C(=O)OC(C)(C)C)c1N

>  <method>  (435) 
None

>  <submitter_email>  (435) 
None

>  <HIPPO ID>  (435) 
113963

$$$$
AQTJAWFGCMZNOU-UHFFFAOYSA-N
     RDKit          3D

 19 19  0  0  0  0  0  0  0  0999 V2000
   14.3496    8.9384   13.8534 C   0  0  0  0  0  0  0  0  0  0  0  0
   14.8459    8.9688   12.4497 C   0  0  0  0  0  0  0  0  0  0  0  0
   15.7223   10.0194   12.1679 C   0  0  0  0  0  0  0  0  0  0  0  0
   16.2584   10.1836   10.9023 C   0  0  0  0  0  0  0  0  0  0  0  0
   17.3342   11.0666   10.6650 N   0  0  0  0  0  0  0  0  0  0  0  0
   17.7930   12.0271   11.5538 C   0  0  0  0  0  0  0  0  0  0  0  0
   17.2271   12.4184   12.5680 O   0  0  0  0  0  0  0  0  0  0  0  0
   19.1503   12.6596   11.2302 C   0  0  0  0  0  0  0  0  0  0  0  0
   19.3520   13.8513   11.3620 O   0  0  0  0  0  0  0  0  0  0  0  0
   20.0237   11.7141   10.8530 O   0  0  0  0  0  0  0  0  0  0  0  0
   21.4393   12.0327   10.7548 C   0  0  0  0  0  0  0  0  0  0  0  0
   22.0882   11.9258   12.1274 C   0  0  0  0  0  0  0  0  0  0  0  0
   22.0006   10.9064    9.9243 C   0  0  0  0  0  0  0  0  0  0  0  0
   21.7760   13.3874   10.1140 C   0  0  0  0  0  0  0  0  0  0  0  0
   15.7767    9.3770    9.8645 C   0  0  0  0  0  0  0  0  0  0  0  0
   16.2515    9.4737    8.5650 N   0  0  0  0  0  0  0  0  0  0  0  0
   14.9382    8.3017   10.1446 C   0  0  0  0  0  0  0  0  0  0  0  0
   14.4992    8.0697   11.4357 C   0  0  0  0  0  0  0  0  0  0  0  0
   13.5044    6.6796   11.6778 Cl  0  0  0  0  0  0  0  0  0  0  0  0
  1  2  1  0
  2  3  2  0
  3  4  1  0
  4  5  1  0
  5  6  1  0
  6  7  2  0
  6  8  1  0
  8  9  2  0
  8 10  1  0
 10 11  1  0
 11 12  1  0
 11 13  1  0
 11 14  1  0
  4 15  2  0
 15 16  1  0
 15 17  1  0
 17 18  2  0
 18 19  1  0
 18  2  1  0
M  END
>  <ref_pdb>  (436) 
c0270a

>  <inchikey>  (436) 
AQTJAWFGCMZNOU-UHFFFAOYSA-N

>  <original ID>  (436) 
AQTJAWFGCMZNOU-UHFFFAOYSA-N

>  <generation_date>  (436) 
None

>  <alias>  (436) 
None

>  <tags>  (436) 
[]

>  <ref_mols>  (436) 
c0692a,c1116a

>  <ref_url>  (436) 
None

>  <submitter_name>  (436) 
None

>  <exports>  (436) 
nan

>  <original SMILES>  (436) 
Cc1cc(NC(=O)C(=O)OC(C)(C)C)c(N)cc1Cl

>  <method>  (436) 
None

>  <submitter_email>  (436) 
None

>  <HIPPO ID>  (436) 
113965

$$$$
HQXFOKGSUPOIIU-UHFFFAOYSA-N
     RDKit          3D

 19 19  0  0  0  0  0  0  0  0999 V2000
   21.8152   13.5772   10.2470 C   0  0  0  0  0  0  0  0  0  0  0  0
   21.4746   12.2494   10.9433 C   0  0  0  0  0  0  0  0  0  0  0  0
   22.2739   11.1312   10.3100 C   0  0  0  0  0  0  0  0  0  0  0  0
   21.8842   12.3319   12.4135 C   0  0  0  0  0  0  0  0  0  0  0  0
   20.0875   11.8314   10.8265 O   0  0  0  0  0  0  0  0  0  0  0  0
   19.1500   12.7304   11.1558 C   0  0  0  0  0  0  0  0  0  0  0  0
   19.3190   13.9181   11.3722 O   0  0  0  0  0  0  0  0  0  0  0  0
   17.7675   12.1069   11.3353 C   0  0  0  0  0  0  0  0  0  0  0  0
   16.9951   12.7010   12.0867 O   0  0  0  0  0  0  0  0  0  0  0  0
   17.4659   10.9656   10.6162 N   0  0  0  0  0  0  0  0  0  0  0  0
   16.3465   10.1287   10.8567 C   0  0  0  0  0  0  0  0  0  0  0  0
   15.8967    9.3037    9.8100 C   0  0  0  0  0  0  0  0  0  0  0  0
   16.4123    9.4225    8.5870 F   0  0  0  0  0  0  0  0  0  0  0  0
   14.9312    8.3213    9.9904 C   0  0  0  0  0  0  0  0  0  0  0  0
   14.4226    8.1100   11.2515 C   0  0  0  0  0  0  0  0  0  0  0  0
   14.7974    8.9796   12.2674 C   0  0  0  0  0  0  0  0  0  0  0  0
   14.1857    8.9173   13.4522 F   0  0  0  0  0  0  0  0  0  0  0  0
   15.7239   10.0081   12.1054 C   0  0  0  0  0  0  0  0  0  0  0  0
   16.1406   10.6691   13.2886 N   0  0  0  0  0  0  0  0  0  0  0  0
  1  2  1  0
  2  3  1  0
  2  4  1  0
  2  5  1  0
  5  6  1  0
  6  7  2  0
  6  8  1  0
  8  9  2  0
  8 10  1  0
 10 11  1  0
 11 12  2  0
 12 13  1  0
 12 14  1  0
 14 15  2  0
 15 16  1  0
 16 17  1  0
 16 18  2  0
 18 19  1  0
 18 11  1  0
M  END
>  <ref_pdb>  (437) 
c0270a

>  <inchikey>  (437) 
HQXFOKGSUPOIIU-UHFFFAOYSA-N

>  <original ID>  (437) 
HQXFOKGSUPOIIU-UHFFFAOYSA-N

>  <generation_date>  (437) 
None

>  <alias>  (437) 
None

>  <tags>  (437) 
[]

>  <ref_mols>  (437) 
c0692a,c1116a

>  <ref_url>  (437) 
None

>  <submitter_name>  (437) 
None

>  <exports>  (437) 
nan

>  <original SMILES>  (437) 
CC(C)(C)OC(=O)C(=O)Nc1c(F)ccc(F)c1N

>  <method>  (437) 
None

>  <submitter_email>  (437) 
None

>  <HIPPO ID>  (437) 
113969

$$$$
SEFCTTIBCXHAME-UHFFFAOYSA-N
     RDKit          3D

 19 19  0  0  0  0  0  0  0  0999 V2000
   22.1487   10.9446   10.1295 C   0  0  0  0  0  0  0  0  0  0  0  0
   21.5079   11.9952   11.0050 C   0  0  0  0  0  0  0  0  0  0  0  0
   21.8808   13.3816   10.4848 C   0  0  0  0  0  0  0  0  0  0  0  0
   22.0786   11.8408   12.4096 C   0  0  0  0  0  0  0  0  0  0  0  0
   20.0935   11.6546   11.0043 O   0  0  0  0  0  0  0  0  0  0  0  0
   19.1660   12.6056   11.2000 C   0  0  0  0  0  0  0  0  0  0  0  0
   19.3096   13.8119   11.1985 O   0  0  0  0  0  0  0  0  0  0  0  0
   17.8153   11.9740   11.5268 C   0  0  0  0  0  0  0  0  0  0  0  0
   17.2568   12.3596   12.5478 O   0  0  0  0  0  0  0  0  0  0  0  0
   17.3460   11.0228   10.6351 N   0  0  0  0  0  0  0  0  0  0  0  0
   16.2685   10.1446   10.8810 C   0  0  0  0  0  0  0  0  0  0  0  0
   15.7696    9.9578   12.1571 C   0  0  0  0  0  0  0  0  0  0  0  0
   14.9047    8.9031   12.4329 C   0  0  0  0  0  0  0  0  0  0  0  0
   14.3589    8.8118   14.4146 I   0  0  0  0  0  0  0  0  0  0  0  0
   14.4990    8.0348   11.4196 C   0  0  0  0  0  0  0  0  0  0  0  0
   13.4897    6.6527   11.6507 Cl  0  0  0  0  0  0  0  0  0  0  0  0
   14.9049    8.2934   10.1212 C   0  0  0  0  0  0  0  0  0  0  0  0
   15.7560    9.3612    9.8419 C   0  0  0  0  0  0  0  0  0  0  0  0
   16.2184    9.4699    8.5407 N   0  0  0  0  0  0  0  0  0  0  0  0
  1  2  1  0
  2  3  1  0
  2  4  1  0
  2  5  1  0
  5  6  1  0
  6  7  2  0
  6  8  1  0
  8  9  2  0
  8 10  1  0
 10 11  1  0
 11 12  2  0
 12 13  1  0
 13 14  1  0
 13 15  2  0
 15 16  1  0
 15 17  1  0
 17 18  2  0
 18 19  1  0
 18 11  1  0
M  END
>  <ref_pdb>  (438) 
c0270a

>  <inchikey>  (438) 
SEFCTTIBCXHAME-UHFFFAOYSA-N

>  <original ID>  (438) 
SEFCTTIBCXHAME-UHFFFAOYSA-N

>  <generation_date>  (438) 
None

>  <alias>  (438) 
None

>  <tags>  (438) 
[]

>  <ref_mols>  (438) 
c0692a,c1116a

>  <ref_url>  (438) 
None

>  <submitter_name>  (438) 
None

>  <exports>  (438) 
['/opt/xchem-fragalysis-2/maxwin/CHIKV_HIPPO/hippo_prod/CHIKV_prod11_recipes/Recipe_1GERJCJ_poses.sdf']

>  <original SMILES>  (438) 
CC(C)(C)OC(=O)C(=O)Nc1cc(I)c(Cl)cc1N

>  <method>  (438) 
None

>  <submitter_email>  (438) 
None

>  <HIPPO ID>  (438) 
113982

$$$$
GPQKCSKKHWZPJU-UHFFFAOYSA-N
     RDKit          3D

 19 19  0  0  0  0  0  0  0  0999 V2000
   21.7379   13.6102    9.9766 C   0  0  0  0  0  0  0  0  0  0  0  0
   21.4466   12.2969   10.7269 C   0  0  0  0  0  0  0  0  0  0  0  0
   21.9745   12.4083   12.1551 C   0  0  0  0  0  0  0  0  0  0  0  0
   22.1587   11.1437   10.0481 C   0  0  0  0  0  0  0  0  0  0  0  0
   20.0457   11.9010   10.7403 O   0  0  0  0  0  0  0  0  0  0  0  0
   19.1615   12.8085   11.1743 C   0  0  0  0  0  0  0  0  0  0  0  0
   19.3815   13.9824   11.4176 O   0  0  0  0  0  0  0  0  0  0  0  0
   17.7640   12.2255   11.3882 C   0  0  0  0  0  0  0  0  0  0  0  0
   16.9869   12.8696   12.0929 O   0  0  0  0  0  0  0  0  0  0  0  0
   17.4271   11.0553   10.7398 N   0  0  0  0  0  0  0  0  0  0  0  0
   16.3157   10.2394   11.0797 C   0  0  0  0  0  0  0  0  0  0  0  0
   15.8188    9.3509   10.1121 C   0  0  0  0  0  0  0  0  0  0  0  0
   16.2940    9.3504    8.8159 N   0  0  0  0  0  0  0  0  0  0  0  0
   14.9720    8.3001   10.4822 C   0  0  0  0  0  0  0  0  0  0  0  0
   14.5454    8.1781   11.7915 C   0  0  0  0  0  0  0  0  0  0  0  0
   14.9112    9.1541   12.7100 C   0  0  0  0  0  0  0  0  0  0  0  0
   14.1922    9.1361   14.4442 Br  0  0  0  0  0  0  0  0  0  0  0  0
   15.7904   10.1733   12.3698 C   0  0  0  0  0  0  0  0  0  0  0  0
   16.1890   10.9996   13.3839 O   0  0  0  0  0  0  0  0  0  0  0  0
  1  2  1  0
  2  3  1  0
  2  4  1  0
  2  5  1  0
  5  6  1  0
  6  7  2  0
  6  8  1  0
  8  9  2  0
  8 10  1  0
 10 11  1  0
 11 12  2  0
 12 13  1  0
 12 14  1  0
 14 15  2  0
 15 16  1  0
 16 17  1  0
 16 18  2  0
 18 19  1  0
 18 11  1  0
M  END
>  <ref_pdb>  (439) 
c0270a

>  <inchikey>  (439) 
GPQKCSKKHWZPJU-UHFFFAOYSA-N

>  <original ID>  (439) 
GPQKCSKKHWZPJU-UHFFFAOYSA-N

>  <generation_date>  (439) 
None

>  <alias>  (439) 
None

>  <tags>  (439) 
[]

>  <ref_mols>  (439) 
c0692a,c1116a

>  <ref_url>  (439) 
None

>  <submitter_name>  (439) 
None

>  <exports>  (439) 
nan

>  <original SMILES>  (439) 
CC(C)(C)OC(=O)C(=O)Nc1c(N)ccc(Br)c1O

>  <method>  (439) 
None

>  <submitter_email>  (439) 
None

>  <HIPPO ID>  (439) 
114010

$$$$
DAFZBBOTIFJSCT-UHFFFAOYSA-N
     RDKit          3D

 19 19  0  0  0  0  0  0  0  0999 V2000
   21.8818   13.5096   10.2757 C   0  0  0  0  0  0  0  0  0  0  0  0
   21.5206   12.1366   10.8607 C   0  0  0  0  0  0  0  0  0  0  0  0
   22.1726   11.0540   10.0288 C   0  0  0  0  0  0  0  0  0  0  0  0
   22.0611   12.0069   12.2831 C   0  0  0  0  0  0  0  0  0  0  0  0
   20.1019   11.8185   10.8348 O   0  0  0  0  0  0  0  0  0  0  0  0
   19.2302   12.7506   11.2527 C   0  0  0  0  0  0  0  0  0  0  0  0
   19.4601   13.9165   11.5174 O   0  0  0  0  0  0  0  0  0  0  0  0
   17.8205   12.1785   11.4109 C   0  0  0  0  0  0  0  0  0  0  0  0
   17.0529   12.7678   12.1680 O   0  0  0  0  0  0  0  0  0  0  0  0
   17.5112   11.0732   10.6460 N   0  0  0  0  0  0  0  0  0  0  0  0
   16.3884   10.2368   10.8160 C   0  0  0  0  0  0  0  0  0  0  0  0
   15.9963    9.4852    9.7013 C   0  0  0  0  0  0  0  0  0  0  0  0
   15.0500    8.4741    9.8110 C   0  0  0  0  0  0  0  0  0  0  0  0
   14.5514    8.1369   11.0521 C   0  0  0  0  0  0  0  0  0  0  0  0
   13.4785    6.5765   11.1753 Br  0  0  0  0  0  0  0  0  0  0  0  0
   14.8690    8.9454   12.1448 C   0  0  0  0  0  0  0  0  0  0  0  0
   14.2721    8.7458   13.3561 O   0  0  0  0  0  0  0  0  0  0  0  0
   15.7523   10.0289   12.0521 C   0  0  0  0  0  0  0  0  0  0  0  0
   16.1691   10.6636   13.2422 N   0  0  0  0  0  0  0  0  0  0  0  0
  1  2  1  0
  2  3  1  0
  2  4  1  0
  2  5  1  0
  5  6  1  0
  6  7  2  0
  6  8  1  0
  8  9  2  0
  8 10  1  0
 10 11  1  0
 11 12  2  0
 12 13  1  0
 13 14  2  0
 14 15  1  0
 14 16  1  0
 16 17  1  0
 16 18  2  0
 18 19  1  0
 18 11  1  0
M  END
>  <ref_pdb>  (440) 
c0270a

>  <inchikey>  (440) 
DAFZBBOTIFJSCT-UHFFFAOYSA-N

>  <original ID>  (440) 
DAFZBBOTIFJSCT-UHFFFAOYSA-N

>  <generation_date>  (440) 
None

>  <alias>  (440) 
None

>  <tags>  (440) 
[]

>  <ref_mols>  (440) 
c0692a,c1116a

>  <ref_url>  (440) 
None

>  <submitter_name>  (440) 
None

>  <exports>  (440) 
nan

>  <original SMILES>  (440) 
CC(C)(C)OC(=O)C(=O)Nc1ccc(Br)c(O)c1N

>  <method>  (440) 
None

>  <submitter_email>  (440) 
None

>  <HIPPO ID>  (440) 
114011

$$$$
XTONPCMWZGGBFU-UHFFFAOYSA-N
     RDKit          3D

 19 20  0  0  0  0  0  0  0  0999 V2000
   19.0949   14.0651   13.3542 C   0  0  0  0  0  0  0  0  0  0  0  0
   18.5823   14.5930   12.0509 C   0  0  0  0  0  0  0  0  0  0  0  0
   19.7540   14.4703   11.0418 C   0  0  0  0  0  0  0  0  0  0  0  0
   18.1970   16.0603   12.2796 C   0  0  0  0  0  0  0  0  0  0  0  0
   17.5292   13.6462   11.6391 O   0  0  0  0  0  0  0  0  0  0  0  0
   16.2222   13.6002   11.9823 C   0  0  0  0  0  0  0  0  0  0  0  0
   15.6246   14.4832   12.5595 O   0  0  0  0  0  0  0  0  0  0  0  0
   15.4755   12.2962   11.5049 C   0  0  0  0  0  0  0  0  0  0  0  0
   14.4803   12.3685   10.7976 O   0  0  0  0  0  0  0  0  0  0  0  0
   16.0763   11.0977   11.9362 N   0  0  0  0  0  0  0  0  0  0  0  0
   17.3562   11.0003   11.2252 C   0  0  0  0  0  0  0  0  0  0  0  0
   17.3446   10.0305   10.0779 C   0  0  0  0  0  0  0  0  0  0  0  0
   16.0520   10.1097    9.4079 N   0  0  0  0  0  0  0  0  0  0  0  0
   15.2063    9.4606   10.3426 C   0  0  0  0  0  0  0  0  0  0  0  0
   14.6115    8.2594   10.0095 C   0  0  0  0  0  0  0  0  0  0  0  0
   14.2509    7.3987   11.0279 C   0  0  0  0  0  0  0  0  0  0  0  0
   14.4230    7.7821   12.3609 C   0  0  0  0  0  0  0  0  0  0  0  0
   14.9050    9.0545   12.6966 C   0  0  0  0  0  0  0  0  0  0  0  0
   15.2869    9.9095   11.6808 C   0  0  0  0  0  0  0  0  0  0  0  0
  1  2  1  0
  2  3  1  0
  2  4  1  0
  2  5  1  0
  5  6  1  0
  6  7  2  0
  6  8  1  0
  8  9  2  0
  8 10  1  0
 10 11  1  0
 11 12  1  0
 12 13  1  0
 13 14  1  0
 14 15  2  0
 15 16  1  0
 16 17  2  0
 17 18  1  0
 18 19  2  0
 19 10  1  0
 19 14  1  0
M  END
>  <ref_pdb>  (441) 
c0270a

>  <inchikey>  (441) 
XTONPCMWZGGBFU-UHFFFAOYSA-N

>  <original ID>  (441) 
XTONPCMWZGGBFU-UHFFFAOYSA-N

>  <generation_date>  (441) 
None

>  <alias>  (441) 
None

>  <tags>  (441) 
[]

>  <ref_mols>  (441) 
c0692a,c1116a

>  <ref_url>  (441) 
None

>  <submitter_name>  (441) 
None

>  <exports>  (441) 
nan

>  <original SMILES>  (441) 
CC(C)(C)OC(=O)C(=O)N1CCNc2ccccc21

>  <method>  (441) 
None

>  <submitter_email>  (441) 
None

>  <HIPPO ID>  (441) 
114037

$$$$
BQQVLGKBAFZSLM-UHFFFAOYSA-N
     RDKit          3D

 19 19  0  0  0  0  0  0  0  0999 V2000
   14.8107    9.8985    8.5693 C   0  0  0  0  0  0  0  0  0  0  0  0
   16.0686    9.2684    8.9283 N   0  0  0  0  0  0  0  0  0  0  0  0
   15.9999    9.0887   10.3245 C   0  0  0  0  0  0  0  0  0  0  0  0
   15.1384    8.0740   10.7798 C   0  0  0  0  0  0  0  0  0  0  0  0
   14.6628    8.1024   12.0760 C   0  0  0  0  0  0  0  0  0  0  0  0
   15.0097    9.1799   12.8768 C   0  0  0  0  0  0  0  0  0  0  0  0
   14.2346    9.4565   14.5502 Br  0  0  0  0  0  0  0  0  0  0  0  0
   15.9133   10.1441   12.4638 C   0  0  0  0  0  0  0  0  0  0  0  0
   16.4548   10.0939   11.1921 C   0  0  0  0  0  0  0  0  0  0  0  0
   17.4683   10.9915   10.7830 N   0  0  0  0  0  0  0  0  0  0  0  0
   17.8069   12.1348   11.4862 C   0  0  0  0  0  0  0  0  0  0  0  0
   17.1132   12.6861   12.3353 O   0  0  0  0  0  0  0  0  0  0  0  0
   19.1538   12.7862   11.1787 C   0  0  0  0  0  0  0  0  0  0  0  0
   19.3169   13.9771   11.3772 O   0  0  0  0  0  0  0  0  0  0  0  0
   20.0790   11.9046   10.7666 O   0  0  0  0  0  0  0  0  0  0  0  0
   21.4695   12.3330   10.8343 C   0  0  0  0  0  0  0  0  0  0  0  0
   22.2599   11.2770   10.0910 C   0  0  0  0  0  0  0  0  0  0  0  0
   21.9282   12.3294   12.2937 C   0  0  0  0  0  0  0  0  0  0  0  0
   21.7692   13.6992   10.1959 C   0  0  0  0  0  0  0  0  0  0  0  0
  1  2  1  0
  2  3  1  0
  3  4  2  0
  4  5  1  0
  5  6  2  0
  6  7  1  0
  6  8  1  0
  8  9  2  0
  9 10  1  0
 10 11  1  0
 11 12  2  0
 11 13  1  0
 13 14  2  0
 13 15  1  0
 15 16  1  0
 16 17  1  0
 16 18  1  0
 16 19  1  0
  9  3  1  0
M  END
>  <ref_pdb>  (442) 
c0270a

>  <inchikey>  (442) 
BQQVLGKBAFZSLM-UHFFFAOYSA-N

>  <original ID>  (442) 
BQQVLGKBAFZSLM-UHFFFAOYSA-N

>  <generation_date>  (442) 
None

>  <alias>  (442) 
None

>  <tags>  (442) 
[]

>  <ref_mols>  (442) 
c0692a,c1116a

>  <ref_url>  (442) 
None

>  <submitter_name>  (442) 
None

>  <exports>  (442) 
['/opt/xchem-fragalysis-2/maxwin/CHIKV_HIPPO/hippo_prod/CHIKV_prod11_recipes/Recipe_1GERJCJ_poses.sdf']

>  <original SMILES>  (442) 
CNc1ccc(Br)cc1NC(=O)C(=O)OC(C)(C)C

>  <method>  (442) 
None

>  <submitter_email>  (442) 
None

>  <HIPPO ID>  (442) 
114058

$$$$
SXJZNKVWNSGRCE-UHFFFAOYSA-N
     RDKit          3D

 19 19  0  0  0  0  0  0  0  0999 V2000
   14.3600    8.8706   13.8458 C   0  0  0  0  0  0  0  0  0  0  0  0
   14.8421    8.9167   12.4375 C   0  0  0  0  0  0  0  0  0  0  0  0
   15.7178    9.9725   12.1639 C   0  0  0  0  0  0  0  0  0  0  0  0
   16.2439   10.1597   10.8969 C   0  0  0  0  0  0  0  0  0  0  0  0
   17.3155   11.0492   10.6609 N   0  0  0  0  0  0  0  0  0  0  0  0
   17.7668   12.0093   11.5515 C   0  0  0  0  0  0  0  0  0  0  0  0
   17.2033   12.3804   12.5753 O   0  0  0  0  0  0  0  0  0  0  0  0
   19.0998   12.6831   11.2167 C   0  0  0  0  0  0  0  0  0  0  0  0
   19.2628   13.8801   11.3626 O   0  0  0  0  0  0  0  0  0  0  0  0
   20.0158   11.7782   10.8361 O   0  0  0  0  0  0  0  0  0  0  0  0
   21.4134   12.1819   10.8452 C   0  0  0  0  0  0  0  0  0  0  0  0
   21.7144   13.4850   10.0841 C   0  0  0  0  0  0  0  0  0  0  0  0
   22.1438   11.0246   10.1918 C   0  0  0  0  0  0  0  0  0  0  0  0
   21.9131   12.2996   12.2866 C   0  0  0  0  0  0  0  0  0  0  0  0
   15.7512    9.3733    9.8511 C   0  0  0  0  0  0  0  0  0  0  0  0
   16.2140    9.4930    8.5502 N   0  0  0  0  0  0  0  0  0  0  0  0
   14.9183    8.2908   10.1215 C   0  0  0  0  0  0  0  0  0  0  0  0
   14.4928    8.0312   11.4131 C   0  0  0  0  0  0  0  0  0  0  0  0
   13.4246    6.4778   11.6448 Br  0  0  0  0  0  0  0  0  0  0  0  0
  1  2  1  0
  2  3  2  0
  3  4  1  0
  4  5  1  0
  5  6  1  0
  6  7  2  0
  6  8  1  0
  8  9  2  0
  8 10  1  0
 10 11  1  0
 11 12  1  0
 11 13  1  0
 11 14  1  0
  4 15  2  0
 15 16  1  0
 15 17  1  0
 17 18  2  0
 18 19  1  0
 18  2  1  0
M  END
>  <ref_pdb>  (443) 
c0270a

>  <inchikey>  (443) 
SXJZNKVWNSGRCE-UHFFFAOYSA-N

>  <original ID>  (443) 
SXJZNKVWNSGRCE-UHFFFAOYSA-N

>  <generation_date>  (443) 
None

>  <alias>  (443) 
None

>  <tags>  (443) 
[]

>  <ref_mols>  (443) 
c0692a,c1116a

>  <ref_url>  (443) 
None

>  <submitter_name>  (443) 
None

>  <exports>  (443) 
nan

>  <original SMILES>  (443) 
Cc1cc(NC(=O)C(=O)OC(C)(C)C)c(N)cc1Br

>  <method>  (443) 
None

>  <submitter_email>  (443) 
None

>  <HIPPO ID>  (443) 
114103

$$$$
OWWUMLSBBAEONW-ZDUSSCGKSA-N
     RDKit          3D

 19 20  0  0  0  0  0  0  0  0999 V2000
   13.2568    9.2911    9.0581 C   0  0  0  0  0  0  0  0  0  0  0  0
   14.3459    9.9577    9.8465 C   0  0  0  0  0  0  0  0  0  0  0  0
   15.5869    9.3955    9.7024 C   0  0  0  0  0  0  0  0  0  0  0  0
   16.6240    9.9742   10.3893 C   0  0  0  0  0  0  0  0  0  0  0  0
   17.9083    9.9918    9.8250 N   0  0  0  0  0  0  0  0  0  0  0  0
   16.4581   10.9952   11.3340 C   0  0  0  0  0  0  0  0  0  0  0  0
   17.6958   11.4602   11.8026 N   0  0  0  0  0  0  0  0  0  0  0  0
   18.0808   12.7779   11.8122 C   0  0  0  0  0  0  0  0  0  0  0  0
   17.2660   13.6870   11.9571 O   0  0  0  0  0  0  0  0  0  0  0  0
   19.6403   13.0164   11.6570 C   0  0  1  0  0  0  0  0  0  0  0  0
   20.3386   11.9123   10.8057 C   0  0  0  0  0  0  0  0  0  0  0  0
   21.7241   12.1683   10.4146 N   0  0  0  0  0  0  0  0  0  0  0  0
   19.9385   14.4387   11.1663 C   0  0  0  0  0  0  0  0  0  0  0  0
   21.1312   14.8750   11.9761 C   0  0  0  0  0  0  0  0  0  0  0  0
   20.8705   14.1752   13.2829 C   0  0  0  0  0  0  0  0  0  0  0  0
   20.2384   12.9360   12.9574 O   0  0  0  0  0  0  0  0  0  0  0  0
   15.2402   11.5611   11.5179 C   0  0  0  0  0  0  0  0  0  0  0  0
   14.2251   11.0828   10.7094 C   0  0  0  0  0  0  0  0  0  0  0  0
   13.1064   11.8072   10.7517 F   0  0  0  0  0  0  0  0  0  0  0  0
  1  2  1  0
  2  3  2  0
  3  4  1  0
  4  5  1  0
  4  6  2  0
  6  7  1  0
  7  8  1  0
  8  9  2  0
  8 10  1  0
 10 11  1  6
 11 12  1  0
 10 13  1  0
 13 14  1  0
 14 15  1  0
 15 16  1  0
  6 17  1  0
 17 18  2  0
 18 19  1  0
 18  2  1  0
 16 10  1  0
M  END
>  <ref_pdb>  (444) 
c0270a

>  <inchikey>  (444) 
OWWUMLSBBAEONW-ZDUSSCGKSA-N

>  <original ID>  (444) 
OWWUMLSBBAEONW-ZDUSSCGKSA-N

>  <generation_date>  (444) 
None

>  <alias>  (444) 
None

>  <tags>  (444) 
[]

>  <ref_mols>  (444) 
c0692a,c1116a

>  <ref_url>  (444) 
None

>  <submitter_name>  (444) 
None

>  <exports>  (444) 
nan

>  <original SMILES>  (444) 
Cc1cc(N)c(NC(=O)[C@@]2(CN)CCCO2)cc1F

>  <method>  (444) 
None

>  <submitter_email>  (444) 
None

>  <HIPPO ID>  (444) 
114341

$$$$
AZEICTWAONUBGT-CYBMUJFWSA-N
     RDKit          3D

 19 20  0  0  0  0  0  0  0  0999 V2000
   14.3667    9.3975   13.8661 C   0  0  0  0  0  0  0  0  0  0  0  0
   14.9435    9.3148   12.5003 C   0  0  0  0  0  0  0  0  0  0  0  0
   15.8997   10.2740   12.1748 C   0  0  0  0  0  0  0  0  0  0  0  0
   16.4381   10.3361   10.8999 C   0  0  0  0  0  0  0  0  0  0  0  0
   17.5709   11.1459   10.6192 N   0  0  0  0  0  0  0  0  0  0  0  0
   18.1118   12.1190   11.4559 C   0  0  0  0  0  0  0  0  0  0  0  0
   17.4550   12.6391   12.3635 O   0  0  0  0  0  0  0  0  0  0  0  0
   19.6054   12.5713   11.2021 C   0  0  2  0  0  0  0  0  0  0  0  0
   20.4684   11.3831   10.6947 C   0  0  0  0  0  0  0  0  0  0  0  0
   21.8424   11.7217   10.3339 N   0  0  0  0  0  0  0  0  0  0  0  0
   20.2129   13.1860   12.4770 C   0  0  0  0  0  0  0  0  0  0  0  0
   21.0797   14.3168   11.9972 C   0  0  0  0  0  0  0  0  0  0  0  0
   20.3554   14.7662   10.7620 C   0  0  0  0  0  0  0  0  0  0  0  0
   19.6408   13.6414   10.2367 O   0  0  0  0  0  0  0  0  0  0  0  0
   15.8955    9.4926    9.9099 C   0  0  0  0  0  0  0  0  0  0  0  0
   16.3219    9.4982    8.5893 N   0  0  0  0  0  0  0  0  0  0  0  0
   14.9979    8.4834   10.2464 C   0  0  0  0  0  0  0  0  0  0  0  0
   14.5435    8.3863   11.5401 C   0  0  0  0  0  0  0  0  0  0  0  0
   13.6392    7.4359   11.8181 F   0  0  0  0  0  0  0  0  0  0  0  0
  1  2  1  0
  2  3  2  0
  3  4  1  0
  4  5  1  0
  5  6  1  0
  6  7  2  0
  6  8  1  0
  8  9  1  6
  9 10  1  0
  8 11  1  0
 11 12  1  0
 12 13  1  0
 13 14  1  0
  4 15  2  0
 15 16  1  0
 15 17  1  0
 17 18  2  0
 18 19  1  0
 18  2  1  0
 14  8  1  0
M  END
>  <ref_pdb>  (445) 
c0270a

>  <inchikey>  (445) 
AZEICTWAONUBGT-CYBMUJFWSA-N

>  <original ID>  (445) 
AZEICTWAONUBGT-CYBMUJFWSA-N

>  <generation_date>  (445) 
None

>  <alias>  (445) 
None

>  <tags>  (445) 
[]

>  <ref_mols>  (445) 
c0692a,c1116a

>  <ref_url>  (445) 
None

>  <submitter_name>  (445) 
None

>  <exports>  (445) 
nan

>  <original SMILES>  (445) 
Cc1cc(NC(=O)[C@]2(CN)CCCO2)c(N)cc1F

>  <method>  (445) 
None

>  <submitter_email>  (445) 
None

>  <HIPPO ID>  (445) 
114342

$$$$
AZEICTWAONUBGT-ZDUSSCGKSA-N
     RDKit          3D

 19 20  0  0  0  0  0  0  0  0999 V2000
   14.3429    9.7525   13.9132 C   0  0  0  0  0  0  0  0  0  0  0  0
   14.9680    9.5357   12.5841 C   0  0  0  0  0  0  0  0  0  0  0  0
   15.9251   10.4715   12.1919 C   0  0  0  0  0  0  0  0  0  0  0  0
   16.4993   10.4038   10.9340 C   0  0  0  0  0  0  0  0  0  0  0  0
   17.6615   11.1634   10.6256 N   0  0  0  0  0  0  0  0  0  0  0  0
   18.1314   12.2661   11.3374 C   0  0  0  0  0  0  0  0  0  0  0  0
   17.3686   12.9746   12.0039 O   0  0  0  0  0  0  0  0  0  0  0  0
   19.6862   12.5801   11.3102 C   0  0  1  0  0  0  0  0  0  0  0  0
   20.5053   11.4062   10.7327 C   0  0  0  0  0  0  0  0  0  0  0  0
   21.9379   11.6711   10.6151 N   0  0  0  0  0  0  0  0  0  0  0  0
   20.0588   13.9495   10.7416 C   0  0  0  0  0  0  0  0  0  0  0  0
   19.9447   14.8926   11.9101 C   0  0  0  0  0  0  0  0  0  0  0  0
   20.4887   14.0343   13.0102 C   0  0  0  0  0  0  0  0  0  0  0  0
   20.0813   12.6989   12.7056 O   0  0  0  0  0  0  0  0  0  0  0  0
   16.0140    9.4390   10.0267 C   0  0  0  0  0  0  0  0  0  0  0  0
   16.3000    9.4678    8.6795 N   0  0  0  0  0  0  0  0  0  0  0  0
   15.0824    8.4860   10.4250 C   0  0  0  0  0  0  0  0  0  0  0  0
   14.6054    8.5078   11.7121 C   0  0  0  0  0  0  0  0  0  0  0  0
   13.7108    7.5692   12.0540 F   0  0  0  0  0  0  0  0  0  0  0  0
  1  2  1  0
  2  3  2  0
  3  4  1  0
  4  5  1  0
  5  6  1  0
  6  7  2  0
  6  8  1  0
  8  9  1  6
  9 10  1  0
  8 11  1  0
 11 12  1  0
 12 13  1  0
 13 14  1  0
  4 15  2  0
 15 16  1  0
 15 17  1  0
 17 18  2  0
 18 19  1  0
 18  2  1  0
 14  8  1  0
M  END
>  <ref_pdb>  (446) 
c0270a

>  <inchikey>  (446) 
AZEICTWAONUBGT-ZDUSSCGKSA-N

>  <original ID>  (446) 
AZEICTWAONUBGT-ZDUSSCGKSA-N

>  <generation_date>  (446) 
None

>  <alias>  (446) 
None

>  <tags>  (446) 
[]

>  <ref_mols>  (446) 
c0692a,c1116a

>  <ref_url>  (446) 
None

>  <submitter_name>  (446) 
None

>  <exports>  (446) 
nan

>  <original SMILES>  (446) 
Cc1cc(NC(=O)[C@@]2(CN)CCCO2)c(N)cc1F

>  <method>  (446) 
None

>  <submitter_email>  (446) 
None

>  <HIPPO ID>  (446) 
114343

$$$$
UJNCRIXBAOBQAJ-CYBMUJFWSA-N
     RDKit          3D

 19 20  0  0  0  0  0  0  0  0999 V2000
   16.0092   11.2262   13.3945 C   0  0  0  0  0  0  0  0  0  0  0  0
   15.7637   10.3125   12.2383 C   0  0  0  0  0  0  0  0  0  0  0  0
   14.8299    9.3022   12.4675 C   0  0  0  0  0  0  0  0  0  0  0  0
   14.1465    9.3421   13.6122 F   0  0  0  0  0  0  0  0  0  0  0  0
   14.5382    8.2988   11.5558 C   0  0  0  0  0  0  0  0  0  0  0  0
   15.0341    8.4176   10.2827 C   0  0  0  0  0  0  0  0  0  0  0  0
   15.8774    9.4847    9.9736 C   0  0  0  0  0  0  0  0  0  0  0  0
   16.3191    9.5206    8.6569 N   0  0  0  0  0  0  0  0  0  0  0  0
   16.3651   10.3647   10.9792 C   0  0  0  0  0  0  0  0  0  0  0  0
   17.5225   11.1368   10.6593 N   0  0  0  0  0  0  0  0  0  0  0  0
   18.0109   12.2742   11.2859 C   0  0  0  0  0  0  0  0  0  0  0  0
   17.2694   13.0618   11.8794 O   0  0  0  0  0  0  0  0  0  0  0  0
   19.5573   12.6055   11.1413 C   0  0  2  0  0  0  0  0  0  0  0  0
   20.3551   11.3508   10.7187 C   0  0  0  0  0  0  0  0  0  0  0  0
   21.7908   11.4976   10.5241 N   0  0  0  0  0  0  0  0  0  0  0  0
   20.0914   13.1859   12.4659 C   0  0  0  0  0  0  0  0  0  0  0  0
   20.9795   14.3358   12.0740 C   0  0  0  0  0  0  0  0  0  0  0  0
   20.3288   14.8111   10.8113 C   0  0  0  0  0  0  0  0  0  0  0  0
   19.7898   13.6488   10.1669 O   0  0  0  0  0  0  0  0  0  0  0  0
  1  2  1  0
  2  3  2  0
  3  4  1  0
  3  5  1  0
  5  6  2  0
  6  7  1  0
  7  8  1  0
  7  9  2  0
  9 10  1  0
 10 11  1  0
 11 12  2  0
 11 13  1  0
 13 14  1  6
 14 15  1  0
 13 16  1  0
 16 17  1  0
 17 18  1  0
 18 19  1  0
  9  2  1  0
 19 13  1  0
M  END
>  <ref_pdb>  (447) 
c0270a

>  <inchikey>  (447) 
UJNCRIXBAOBQAJ-CYBMUJFWSA-N

>  <original ID>  (447) 
UJNCRIXBAOBQAJ-CYBMUJFWSA-N

>  <generation_date>  (447) 
None

>  <alias>  (447) 
None

>  <tags>  (447) 
[]

>  <ref_mols>  (447) 
c0692a,c1116a

>  <ref_url>  (447) 
None

>  <submitter_name>  (447) 
None

>  <exports>  (447) 
['/opt/xchem-fragalysis-2/maxwin/CHIKV_HIPPO/hippo_prod/CHIKV_prod11_recipes/Recipe_1GERJCJ_poses.sdf']

>  <original SMILES>  (447) 
Cc1c(F)ccc(N)c1NC(=O)[C@]1(CN)CCCO1

>  <method>  (447) 
None

>  <submitter_email>  (447) 
None

>  <HIPPO ID>  (447) 
114373

$$$$
UJNCRIXBAOBQAJ-ZDUSSCGKSA-N
     RDKit          3D

 19 20  0  0  0  0  0  0  0  0999 V2000
   16.0223   11.4328   13.3555 C   0  0  0  0  0  0  0  0  0  0  0  0
   15.7897   10.4353   12.2692 C   0  0  0  0  0  0  0  0  0  0  0  0
   14.8419    9.4510   12.5488 C   0  0  0  0  0  0  0  0  0  0  0  0
   14.1172    9.5860   13.6610 F   0  0  0  0  0  0  0  0  0  0  0  0
   14.5723    8.3788   11.7101 C   0  0  0  0  0  0  0  0  0  0  0  0
   15.0936    8.4001   10.4424 C   0  0  0  0  0  0  0  0  0  0  0  0
   15.9874    9.4125   10.0896 C   0  0  0  0  0  0  0  0  0  0  0  0
   16.2716    9.5048    8.7403 N   0  0  0  0  0  0  0  0  0  0  0  0
   16.4255   10.3889   11.0278 C   0  0  0  0  0  0  0  0  0  0  0  0
   17.6159   11.1122   10.6994 N   0  0  0  0  0  0  0  0  0  0  0  0
   18.0802   12.3119   11.2259 C   0  0  0  0  0  0  0  0  0  0  0  0
   17.3062   13.1604   11.6796 O   0  0  0  0  0  0  0  0  0  0  0  0
   19.6458   12.5710   11.2546 C   0  0  1  0  0  0  0  0  0  0  0  0
   20.4639   11.3709   10.7154 C   0  0  0  0  0  0  0  0  0  0  0  0
   21.9110   11.5604   10.5888 N   0  0  0  0  0  0  0  0  0  0  0  0
   20.0940   13.9319   10.7084 C   0  0  0  0  0  0  0  0  0  0  0  0
   20.0702   14.8602   11.8956 C   0  0  0  0  0  0  0  0  0  0  0  0
   20.5389   13.9360   12.9753 C   0  0  0  0  0  0  0  0  0  0  0  0
   19.9257   12.6828   12.6782 O   0  0  0  0  0  0  0  0  0  0  0  0
  1  2  1  0
  2  3  2  0
  3  4  1  0
  3  5  1  0
  5  6  2  0
  6  7  1  0
  7  8  1  0
  7  9  2  0
  9 10  1  0
 10 11  1  0
 11 12  2  0
 11 13  1  0
 13 14  1  6
 14 15  1  0
 13 16  1  0
 16 17  1  0
 17 18  1  0
 18 19  1  0
  9  2  1  0
 19 13  1  0
M  END
>  <ref_pdb>  (448) 
c0270a

>  <inchikey>  (448) 
UJNCRIXBAOBQAJ-ZDUSSCGKSA-N

>  <original ID>  (448) 
UJNCRIXBAOBQAJ-ZDUSSCGKSA-N

>  <generation_date>  (448) 
None

>  <alias>  (448) 
None

>  <tags>  (448) 
[]

>  <ref_mols>  (448) 
c0692a,c1116a

>  <ref_url>  (448) 
None

>  <submitter_name>  (448) 
None

>  <exports>  (448) 
['/opt/xchem-fragalysis-2/maxwin/CHIKV_HIPPO/hippo_prod/CHIKV_prod11_recipes/Recipe_1GERJCJ_poses.sdf']

>  <original SMILES>  (448) 
Cc1c(F)ccc(N)c1NC(=O)[C@@]1(CN)CCCO1

>  <method>  (448) 
None

>  <submitter_email>  (448) 
None

>  <HIPPO ID>  (448) 
114374

$$$$
DZSBCLSJIXWZNY-CYBMUJFWSA-N
     RDKit          3D

 19 20  0  0  0  0  0  0  0  0999 V2000
   14.4125    8.9242   13.5904 C   0  0  0  0  0  0  0  0  0  0  0  0
   14.9595    9.1942   12.2307 C   0  0  0  0  0  0  0  0  0  0  0  0
   14.5575    8.4241   11.1311 C   0  0  0  0  0  0  0  0  0  0  0  0
   13.6310    7.4628   11.2676 F   0  0  0  0  0  0  0  0  0  0  0  0
   15.0730    8.6523    9.8773 C   0  0  0  0  0  0  0  0  0  0  0  0
   16.0909    9.5840    9.7390 C   0  0  0  0  0  0  0  0  0  0  0  0
   16.5332   10.3627   10.8245 C   0  0  0  0  0  0  0  0  0  0  0  0
   17.7024   11.1360   10.6038 N   0  0  0  0  0  0  0  0  0  0  0  0
   18.1736   12.2080   11.3408 C   0  0  0  0  0  0  0  0  0  0  0  0
   17.4294   12.8822   12.0636 O   0  0  0  0  0  0  0  0  0  0  0  0
   19.6845   12.6030   11.1666 C   0  0  2  0  0  0  0  0  0  0  0  0
   20.5532   11.4037   10.6995 C   0  0  0  0  0  0  0  0  0  0  0  0
   21.9429   11.7337   10.3940 N   0  0  0  0  0  0  0  0  0  0  0  0
   20.2369   13.2099   12.4678 C   0  0  0  0  0  0  0  0  0  0  0  0
   21.0983   14.3608   12.0255 C   0  0  0  0  0  0  0  0  0  0  0  0
   20.4019   14.8147   10.7750 C   0  0  0  0  0  0  0  0  0  0  0  0
   19.7651   13.6720   10.1945 O   0  0  0  0  0  0  0  0  0  0  0  0
   15.8837   10.2401   12.0673 C   0  0  0  0  0  0  0  0  0  0  0  0
   16.3185   10.9294   13.2265 N   0  0  0  0  0  0  0  0  0  0  0  0
  1  2  1  0
  2  3  2  0
  3  4  1  0
  3  5  1  0
  5  6  2  0
  6  7  1  0
  7  8  1  0
  8  9  1  0
  9 10  2  0
  9 11  1  0
 11 12  1  6
 12 13  1  0
 11 14  1  0
 14 15  1  0
 15 16  1  0
 16 17  1  0
  7 18  2  0
 18 19  1  0
 18  2  1  0
 17 11  1  0
M  END
>  <ref_pdb>  (449) 
c0270a

>  <inchikey>  (449) 
DZSBCLSJIXWZNY-CYBMUJFWSA-N

>  <original ID>  (449) 
DZSBCLSJIXWZNY-CYBMUJFWSA-N

>  <generation_date>  (449) 
None

>  <alias>  (449) 
None

>  <tags>  (449) 
[]

>  <ref_mols>  (449) 
c0692a,c1116a

>  <ref_url>  (449) 
None

>  <submitter_name>  (449) 
None

>  <exports>  (449) 
['/opt/xchem-fragalysis-2/maxwin/CHIKV_HIPPO/hippo_prod/CHIKV_prod11_recipes/Recipe_1GERJCJ_poses.sdf']

>  <original SMILES>  (449) 
Cc1c(F)ccc(NC(=O)[C@]2(CN)CCCO2)c1N

>  <method>  (449) 
None

>  <submitter_email>  (449) 
None

>  <HIPPO ID>  (449) 
114375

$$$$
DZSBCLSJIXWZNY-ZDUSSCGKSA-N
     RDKit          3D

 19 20  0  0  0  0  0  0  0  0999 V2000
   14.4121    9.2313   13.5972 C   0  0  0  0  0  0  0  0  0  0  0  0
   14.9886    9.3879   12.2309 C   0  0  0  0  0  0  0  0  0  0  0  0
   14.6075    8.5364   11.1836 C   0  0  0  0  0  0  0  0  0  0  0  0
   13.6850    7.5797   11.3702 F   0  0  0  0  0  0  0  0  0  0  0  0
   15.1506    8.6671    9.9275 C   0  0  0  0  0  0  0  0  0  0  0  0
   16.1886    9.5681    9.7489 C   0  0  0  0  0  0  0  0  0  0  0  0
   16.6242   10.4099   10.7888 C   0  0  0  0  0  0  0  0  0  0  0  0
   17.8436   11.1032   10.5665 N   0  0  0  0  0  0  0  0  0  0  0  0
   18.3022   12.2402   11.2093 C   0  0  0  0  0  0  0  0  0  0  0  0
   17.5305   13.0215   11.7817 O   0  0  0  0  0  0  0  0  0  0  0  0
   19.8494   12.5179   11.2059 C   0  0  1  0  0  0  0  0  0  0  0  0
   20.6876   11.3273   10.7028 C   0  0  0  0  0  0  0  0  0  0  0  0
   22.1124   11.6251   10.5689 N   0  0  0  0  0  0  0  0  0  0  0  0
   20.2288   13.8593   10.5687 C   0  0  0  0  0  0  0  0  0  0  0  0
   21.0769   14.5727   11.5935 C   0  0  0  0  0  0  0  0  0  0  0  0
   20.5091   14.0469   12.8790 C   0  0  0  0  0  0  0  0  0  0  0  0
   20.1948   12.6832   12.6092 O   0  0  0  0  0  0  0  0  0  0  0  0
   15.9295   10.4091   12.0117 C   0  0  0  0  0  0  0  0  0  0  0  0
   16.3362   11.1879   13.1208 N   0  0  0  0  0  0  0  0  0  0  0  0
  1  2  1  0
  2  3  2  0
  3  4  1  0
  3  5  1  0
  5  6  2  0
  6  7  1  0
  7  8  1  0
  8  9  1  0
  9 10  2  0
  9 11  1  0
 11 12  1  6
 12 13  1  0
 11 14  1  0
 14 15  1  0
 15 16  1  0
 16 17  1  0
  7 18  2  0
 18 19  1  0
 18  2  1  0
 17 11  1  0
M  END
>  <ref_pdb>  (450) 
c0270a

>  <inchikey>  (450) 
DZSBCLSJIXWZNY-ZDUSSCGKSA-N

>  <original ID>  (450) 
DZSBCLSJIXWZNY-ZDUSSCGKSA-N

>  <generation_date>  (450) 
None

>  <alias>  (450) 
None

>  <tags>  (450) 
[]

>  <ref_mols>  (450) 
c0692a,c1116a

>  <ref_url>  (450) 
None

>  <submitter_name>  (450) 
None

>  <exports>  (450) 
['/opt/xchem-fragalysis-2/maxwin/CHIKV_HIPPO/hippo_prod/CHIKV_prod11_recipes/Recipe_1GERJCJ_poses.sdf']

>  <original SMILES>  (450) 
Cc1c(F)ccc(NC(=O)[C@@]2(CN)CCCO2)c1N

>  <method>  (450) 
None

>  <submitter_email>  (450) 
None

>  <HIPPO ID>  (450) 
114376

$$$$
OOVWJHPMFVRINC-CYBMUJFWSA-N
     RDKit          3D

 19 20  0  0  0  0  0  0  0  0999 V2000
   14.4103    9.5283   13.9368 C   0  0  0  0  0  0  0  0  0  0  0  0
   14.9922    9.3794   12.5778 C   0  0  0  0  0  0  0  0  0  0  0  0
   14.5933    8.3982   11.6728 C   0  0  0  0  0  0  0  0  0  0  0  0
   15.0259    8.4719   10.3602 C   0  0  0  0  0  0  0  0  0  0  0  0
   15.9053    9.4831    9.9668 C   0  0  0  0  0  0  0  0  0  0  0  0
   16.2947    9.4720    8.6309 N   0  0  0  0  0  0  0  0  0  0  0  0
   16.4815   10.3389   10.9237 C   0  0  0  0  0  0  0  0  0  0  0  0
   17.6375   11.0979   10.5928 N   0  0  0  0  0  0  0  0  0  0  0  0
   18.1056   12.2031   11.2937 C   0  0  0  0  0  0  0  0  0  0  0  0
   17.3470   12.9244   11.9483 O   0  0  0  0  0  0  0  0  0  0  0  0
   19.6337   12.5809   11.1424 C   0  0  2  0  0  0  0  0  0  0  0  0
   20.4884   11.3595   10.7160 C   0  0  0  0  0  0  0  0  0  0  0  0
   21.9126   11.6313   10.5328 N   0  0  0  0  0  0  0  0  0  0  0  0
   20.1572   13.1863   12.4596 C   0  0  0  0  0  0  0  0  0  0  0  0
   21.0344   14.3356   12.0459 C   0  0  0  0  0  0  0  0  0  0  0  0
   20.3692   14.7910   10.7816 C   0  0  0  0  0  0  0  0  0  0  0  0
   19.8033   13.6309   10.1588 O   0  0  0  0  0  0  0  0  0  0  0  0
   15.9655   10.3011   12.2125 C   0  0  0  0  0  0  0  0  0  0  0  0
   16.4784   11.0466   13.1991 F   0  0  0  0  0  0  0  0  0  0  0  0
  1  2  1  0
  2  3  2  0
  3  4  1  0
  4  5  2  0
  5  6  1  0
  5  7  1  0
  7  8  1  0
  8  9  1  0
  9 10  2  0
  9 11  1  0
 11 12  1  6
 12 13  1  0
 11 14  1  0
 14 15  1  0
 15 16  1  0
 16 17  1  0
  7 18  2  0
 18 19  1  0
 18  2  1  0
 17 11  1  0
M  END
>  <ref_pdb>  (451) 
c0270a

>  <inchikey>  (451) 
OOVWJHPMFVRINC-CYBMUJFWSA-N

>  <original ID>  (451) 
OOVWJHPMFVRINC-CYBMUJFWSA-N

>  <generation_date>  (451) 
None

>  <alias>  (451) 
None

>  <tags>  (451) 
[]

>  <ref_mols>  (451) 
c0692a,c1116a

>  <ref_url>  (451) 
None

>  <submitter_name>  (451) 
None

>  <exports>  (451) 
nan

>  <original SMILES>  (451) 
Cc1ccc(N)c(NC(=O)[C@]2(CN)CCCO2)c1F

>  <method>  (451) 
None

>  <submitter_email>  (451) 
None

>  <HIPPO ID>  (451) 
114377

$$$$
OOVWJHPMFVRINC-ZDUSSCGKSA-N
     RDKit          3D

 19 20  0  0  0  0  0  0  0  0999 V2000
   14.3690    9.8724   14.0630 C   0  0  0  0  0  0  0  0  0  0  0  0
   14.9746    9.6156   12.7322 C   0  0  0  0  0  0  0  0  0  0  0  0
   14.6178    8.5437   11.9206 C   0  0  0  0  0  0  0  0  0  0  0  0
   15.0669    8.5081   10.6143 C   0  0  0  0  0  0  0  0  0  0  0  0
   15.9470    9.4888   10.1459 C   0  0  0  0  0  0  0  0  0  0  0  0
   16.4006    9.3427    8.8466 N   0  0  0  0  0  0  0  0  0  0  0  0
   16.5016   10.4248   11.0362 C   0  0  0  0  0  0  0  0  0  0  0  0
   17.6861   11.1275   10.6786 N   0  0  0  0  0  0  0  0  0  0  0  0
   18.1331   12.3034   11.2748 C   0  0  0  0  0  0  0  0  0  0  0  0
   17.3416   13.1065   11.7801 O   0  0  0  0  0  0  0  0  0  0  0  0
   19.6884   12.5940   11.2992 C   0  0  1  0  0  0  0  0  0  0  0  0
   20.5085   11.4152   10.7336 C   0  0  0  0  0  0  0  0  0  0  0  0
   21.9462   11.6658   10.6432 N   0  0  0  0  0  0  0  0  0  0  0  0
   20.0884   13.9634   10.7413 C   0  0  0  0  0  0  0  0  0  0  0  0
   19.9700   14.9032   11.9125 C   0  0  0  0  0  0  0  0  0  0  0  0
   20.4724   14.0296   13.0203 C   0  0  0  0  0  0  0  0  0  0  0  0
   20.0426   12.7045   12.7039 O   0  0  0  0  0  0  0  0  0  0  0  0
   15.9507   10.5081   12.3067 C   0  0  0  0  0  0  0  0  0  0  0  0
   16.4389   11.3410   13.2326 F   0  0  0  0  0  0  0  0  0  0  0  0
  1  2  1  0
  2  3  2  0
  3  4  1  0
  4  5  2  0
  5  6  1  0
  5  7  1  0
  7  8  1  0
  8  9  1  0
  9 10  2  0
  9 11  1  0
 11 12  1  6
 12 13  1  0
 11 14  1  0
 14 15  1  0
 15 16  1  0
 16 17  1  0
  7 18  2  0
 18 19  1  0
 18  2  1  0
 17 11  1  0
M  END
>  <ref_pdb>  (452) 
c0270a

>  <inchikey>  (452) 
OOVWJHPMFVRINC-ZDUSSCGKSA-N

>  <original ID>  (452) 
OOVWJHPMFVRINC-ZDUSSCGKSA-N

>  <generation_date>  (452) 
None

>  <alias>  (452) 
None

>  <tags>  (452) 
[]

>  <ref_mols>  (452) 
c0692a,c1116a

>  <ref_url>  (452) 
None

>  <submitter_name>  (452) 
None

>  <exports>  (452) 
nan

>  <original SMILES>  (452) 
Cc1ccc(N)c(NC(=O)[C@@]2(CN)CCCO2)c1F

>  <method>  (452) 
None

>  <submitter_email>  (452) 
None

>  <HIPPO ID>  (452) 
114378

$$$$
YMMNLAZUQFWVQJ-CYBMUJFWSA-N
     RDKit          3D

 19 20  0  0  0  0  0  0  0  0999 V2000
   13.7213    7.0874   11.1559 C   0  0  0  0  0  0  0  0  0  0  0  0
   14.5722    8.3120   11.0102 C   0  0  0  0  0  0  0  0  0  0  0  0
   15.1346    8.5924    9.7823 C   0  0  0  0  0  0  0  0  0  0  0  0
   16.1225    9.5654    9.6790 C   0  0  0  0  0  0  0  0  0  0  0  0
   16.5272   10.3437   10.7761 C   0  0  0  0  0  0  0  0  0  0  0  0
   17.6974   11.1241   10.5914 N   0  0  0  0  0  0  0  0  0  0  0  0
   18.1616   12.1792   11.3577 C   0  0  0  0  0  0  0  0  0  0  0  0
   17.4163   12.8260   12.1019 O   0  0  0  0  0  0  0  0  0  0  0  0
   19.6790   12.5858   11.1749 C   0  0  2  0  0  0  0  0  0  0  0  0
   20.5478   11.3715   10.7442 C   0  0  0  0  0  0  0  0  0  0  0  0
   21.9651   11.6603   10.5336 N   0  0  0  0  0  0  0  0  0  0  0  0
   20.2187   13.2206   12.4696 C   0  0  0  0  0  0  0  0  0  0  0  0
   21.0950   14.3544   12.0127 C   0  0  0  0  0  0  0  0  0  0  0  0
   20.4135   14.7837   10.7464 C   0  0  0  0  0  0  0  0  0  0  0  0
   19.8033   13.6215   10.1712 O   0  0  0  0  0  0  0  0  0  0  0  0
   15.8293   10.2081   11.9779 C   0  0  0  0  0  0  0  0  0  0  0  0
   16.1987   10.8533   13.1836 N   0  0  0  0  0  0  0  0  0  0  0  0
   14.8966    9.1637   12.0690 C   0  0  0  0  0  0  0  0  0  0  0  0
   14.2707    9.0415   13.2425 F   0  0  0  0  0  0  0  0  0  0  0  0
  1  2  1  0
  2  3  2  0
  3  4  1  0
  4  5  2  0
  5  6  1  0
  6  7  1  0
  7  8  2  0
  7  9  1  0
  9 10  1  6
 10 11  1  0
  9 12  1  0
 12 13  1  0
 13 14  1  0
 14 15  1  0
  5 16  1  0
 16 17  1  0
 16 18  2  0
 18 19  1  0
 18  2  1  0
 15  9  1  0
M  END
>  <ref_pdb>  (453) 
c0270a

>  <inchikey>  (453) 
YMMNLAZUQFWVQJ-CYBMUJFWSA-N

>  <original ID>  (453) 
YMMNLAZUQFWVQJ-CYBMUJFWSA-N

>  <generation_date>  (453) 
None

>  <alias>  (453) 
None

>  <tags>  (453) 
[]

>  <ref_mols>  (453) 
c0692a,c1116a

>  <ref_url>  (453) 
None

>  <submitter_name>  (453) 
None

>  <exports>  (453) 
nan

>  <original SMILES>  (453) 
Cc1ccc(NC(=O)[C@]2(CN)CCCO2)c(N)c1F

>  <method>  (453) 
None

>  <submitter_email>  (453) 
None

>  <HIPPO ID>  (453) 
114379

$$$$
YMMNLAZUQFWVQJ-ZDUSSCGKSA-N
     RDKit          3D

 19 20  0  0  0  0  0  0  0  0999 V2000
   13.7630    7.1490   11.2309 C   0  0  0  0  0  0  0  0  0  0  0  0
   14.6042    8.3746   11.0390 C   0  0  0  0  0  0  0  0  0  0  0  0
   15.1791    8.5925    9.8045 C   0  0  0  0  0  0  0  0  0  0  0  0
   16.1839    9.5427    9.6697 C   0  0  0  0  0  0  0  0  0  0  0  0
   16.5942   10.3566   10.7381 C   0  0  0  0  0  0  0  0  0  0  0  0
   17.8079   11.0703   10.5515 N   0  0  0  0  0  0  0  0  0  0  0  0
   18.2634   12.1808   11.2420 C   0  0  0  0  0  0  0  0  0  0  0  0
   17.4884   12.9208   11.8619 O   0  0  0  0  0  0  0  0  0  0  0  0
   19.8170   12.4825   11.2099 C   0  0  1  0  0  0  0  0  0  0  0  0
   20.6727   11.2981   10.6972 C   0  0  0  0  0  0  0  0  0  0  0  0
   22.0878   11.5859   10.4432 N   0  0  0  0  0  0  0  0  0  0  0  0
   20.1794   13.8285   10.5810 C   0  0  0  0  0  0  0  0  0  0  0  0
   21.0728   14.5179   11.5828 C   0  0  0  0  0  0  0  0  0  0  0  0
   20.5213   14.0049   12.8795 C   0  0  0  0  0  0  0  0  0  0  0  0
   20.1510   12.6558   12.6146 O   0  0  0  0  0  0  0  0  0  0  0  0
   15.8690   10.3040   11.9301 C   0  0  0  0  0  0  0  0  0  0  0  0
   16.2369   11.0015   13.1052 N   0  0  0  0  0  0  0  0  0  0  0  0
   14.9163    9.2803   12.0578 C   0  0  0  0  0  0  0  0  0  0  0  0
   14.2704    9.2245   13.2263 F   0  0  0  0  0  0  0  0  0  0  0  0
  1  2  1  0
  2  3  2  0
  3  4  1  0
  4  5  2  0
  5  6  1  0
  6  7  1  0
  7  8  2  0
  7  9  1  0
  9 10  1  6
 10 11  1  0
  9 12  1  0
 12 13  1  0
 13 14  1  0
 14 15  1  0
  5 16  1  0
 16 17  1  0
 16 18  2  0
 18 19  1  0
 18  2  1  0
 15  9  1  0
M  END
>  <ref_pdb>  (454) 
c0270a

>  <inchikey>  (454) 
YMMNLAZUQFWVQJ-ZDUSSCGKSA-N

>  <original ID>  (454) 
YMMNLAZUQFWVQJ-ZDUSSCGKSA-N

>  <generation_date>  (454) 
None

>  <alias>  (454) 
None

>  <tags>  (454) 
[]

>  <ref_mols>  (454) 
c0692a,c1116a

>  <ref_url>  (454) 
None

>  <submitter_name>  (454) 
None

>  <exports>  (454) 
nan

>  <original SMILES>  (454) 
Cc1ccc(NC(=O)[C@@]2(CN)CCCO2)c(N)c1F

>  <method>  (454) 
None

>  <submitter_email>  (454) 
None

>  <HIPPO ID>  (454) 
114380

$$$$
NFRIWYBTDJBDTB-CQSZACIVSA-N
     RDKit          3D

 19 20  0  0  0  0  0  0  0  0999 V2000
   14.4528    9.7847   14.0446 C   0  0  0  0  0  0  0  0  0  0  0  0
   15.0254    9.5738   12.6902 C   0  0  0  0  0  0  0  0  0  0  0  0
   14.5879    8.5757   11.8297 C   0  0  0  0  0  0  0  0  0  0  0  0
   14.8838    8.6535   10.4722 C   0  0  0  0  0  0  0  0  0  0  0  0
   14.1306    7.7600    9.5312 C   0  0  0  0  0  0  0  0  0  0  0  0
   15.8276    9.5915   10.0294 C   0  0  0  0  0  0  0  0  0  0  0  0
   16.2173    9.5413    8.6903 N   0  0  0  0  0  0  0  0  0  0  0  0
   16.4608   10.4407   10.9592 C   0  0  0  0  0  0  0  0  0  0  0  0
   17.6169   11.1815   10.6065 N   0  0  0  0  0  0  0  0  0  0  0  0
   18.1411   12.2353   11.3456 C   0  0  0  0  0  0  0  0  0  0  0  0
   17.4478   12.8844   12.1370 O   0  0  0  0  0  0  0  0  0  0  0  0
   19.6489   12.6275   11.1241 C   0  0  2  0  0  0  0  0  0  0  0  0
   20.5033   11.4072   10.7006 C   0  0  0  0  0  0  0  0  0  0  0  0
   21.8947   11.7262   10.3786 N   0  0  0  0  0  0  0  0  0  0  0  0
   20.1930   13.2676   12.4149 C   0  0  0  0  0  0  0  0  0  0  0  0
   20.0875   14.7490   12.1703 C   0  0  0  0  0  0  0  0  0  0  0  0
   20.3952   14.8129   10.7022 C   0  0  0  0  0  0  0  0  0  0  0  0
   19.7495   13.6693   10.1272 O   0  0  0  0  0  0  0  0  0  0  0  0
   15.9798   10.4800   12.2587 C   0  0  0  0  0  0  0  0  0  0  0  0
  1  2  1  0
  2  3  2  0
  3  4  1  0
  4  5  1  0
  4  6  2  0
  6  7  1  0
  6  8  1  0
  8  9  1  0
  9 10  1  0
 10 11  2  0
 10 12  1  0
 12 13  1  6
 13 14  1  0
 12 15  1  0
 15 16  1  0
 16 17  1  0
 17 18  1  0
  8 19  2  0
 19  2  1  0
 18 12  1  0
M  END
>  <ref_pdb>  (455) 
c0270a

>  <inchikey>  (455) 
NFRIWYBTDJBDTB-CQSZACIVSA-N

>  <original ID>  (455) 
NFRIWYBTDJBDTB-CQSZACIVSA-N

>  <generation_date>  (455) 
None

>  <alias>  (455) 
None

>  <tags>  (455) 
[]

>  <ref_mols>  (455) 
c0692a,c1116a

>  <ref_url>  (455) 
None

>  <submitter_name>  (455) 
None

>  <exports>  (455) 
nan

>  <original SMILES>  (455) 
Cc1cc(C)c(N)c(NC(=O)[C@]2(CN)CCCO2)c1

>  <method>  (455) 
None

>  <submitter_email>  (455) 
None

>  <HIPPO ID>  (455) 
114384

$$$$
NFRIWYBTDJBDTB-AWEZNQCLSA-N
     RDKit          3D

 19 20  0  0  0  0  0  0  0  0999 V2000
   14.4670    9.9973   14.0073 C   0  0  0  0  0  0  0  0  0  0  0  0
   15.0546    9.7233   12.6703 C   0  0  0  0  0  0  0  0  0  0  0  0
   14.6181    8.6878   11.8509 C   0  0  0  0  0  0  0  0  0  0  0  0
   14.9196    8.7022   10.4933 C   0  0  0  0  0  0  0  0  0  0  0  0
   14.1673    7.7796    9.5784 C   0  0  0  0  0  0  0  0  0  0  0  0
   15.8804    9.6065   10.0243 C   0  0  0  0  0  0  0  0  0  0  0  0
   16.2596    9.5174    8.6843 N   0  0  0  0  0  0  0  0  0  0  0  0
   16.5264   10.4776   10.9255 C   0  0  0  0  0  0  0  0  0  0  0  0
   17.7259   11.1448   10.5708 N   0  0  0  0  0  0  0  0  0  0  0  0
   18.2380   12.2541   11.2352 C   0  0  0  0  0  0  0  0  0  0  0  0
   17.5015   13.0295   11.8585 O   0  0  0  0  0  0  0  0  0  0  0  0
   19.7892   12.5091   11.2000 C   0  0  1  0  0  0  0  0  0  0  0  0
   20.6006   11.3106   10.6794 C   0  0  0  0  0  0  0  0  0  0  0  0
   22.0168   11.6070   10.4873 N   0  0  0  0  0  0  0  0  0  0  0  0
   20.1831   13.8522   10.5746 C   0  0  0  0  0  0  0  0  0  0  0  0
   21.0042   14.5712   11.6178 C   0  0  0  0  0  0  0  0  0  0  0  0
   20.4273   14.0272   12.8905 C   0  0  0  0  0  0  0  0  0  0  0  0
   20.1585   12.6587   12.6014 O   0  0  0  0  0  0  0  0  0  0  0  0
   16.0279   10.5967   12.2122 C   0  0  0  0  0  0  0  0  0  0  0  0
  1  2  1  0
  2  3  2  0
  3  4  1  0
  4  5  1  0
  4  6  2  0
  6  7  1  0
  6  8  1  0
  8  9  1  0
  9 10  1  0
 10 11  2  0
 10 12  1  0
 12 13  1  6
 13 14  1  0
 12 15  1  0
 15 16  1  0
 16 17  1  0
 17 18  1  0
  8 19  2  0
 19  2  1  0
 18 12  1  0
M  END
>  <ref_pdb>  (456) 
c0270a

>  <inchikey>  (456) 
NFRIWYBTDJBDTB-AWEZNQCLSA-N

>  <original ID>  (456) 
NFRIWYBTDJBDTB-AWEZNQCLSA-N

>  <generation_date>  (456) 
None

>  <alias>  (456) 
None

>  <tags>  (456) 
[]

>  <ref_mols>  (456) 
c0692a,c1116a

>  <ref_url>  (456) 
None

>  <submitter_name>  (456) 
None

>  <exports>  (456) 
nan

>  <original SMILES>  (456) 
Cc1cc(C)c(N)c(NC(=O)[C@@]2(CN)CCCO2)c1

>  <method>  (456) 
None

>  <submitter_email>  (456) 
None

>  <HIPPO ID>  (456) 
114385

$$$$
XBXLMTFGYXYIKI-LBPRGKRZSA-N
     RDKit          3D

 19 20  0  0  0  0  0  0  0  0999 V2000
   22.0479   11.5895   10.4948 N   0  0  0  0  0  0  0  0  0  0  0  0
   20.6154   11.3393   10.6825 C   0  0  0  0  0  0  0  0  0  0  0  0
   19.7733   12.5230   11.2182 C   0  0  2  0  0  0  0  0  0  0  0  0
   18.2202   12.2283   11.1955 C   0  0  0  0  0  0  0  0  0  0  0  0
   17.4320   13.0092   11.7470 O   0  0  0  0  0  0  0  0  0  0  0  0
   17.7680   11.0696   10.5750 N   0  0  0  0  0  0  0  0  0  0  0  0
   16.5546   10.3668   10.8421 C   0  0  0  0  0  0  0  0  0  0  0  0
   16.0908    9.4523    9.8691 C   0  0  0  0  0  0  0  0  0  0  0  0
   16.6345    9.4114    8.6542 F   0  0  0  0  0  0  0  0  0  0  0  0
   15.0989    8.5149   10.1172 C   0  0  0  0  0  0  0  0  0  0  0  0
   14.5451    8.4688   11.3729 C   0  0  0  0  0  0  0  0  0  0  0  0
   14.8815    9.4633   12.2871 C   0  0  0  0  0  0  0  0  0  0  0  0
   14.1972    9.5641   13.4302 F   0  0  0  0  0  0  0  0  0  0  0  0
   15.8660   10.4283   12.0572 C   0  0  0  0  0  0  0  0  0  0  0  0
   16.2728   11.1986   13.1715 N   0  0  0  0  0  0  0  0  0  0  0  0
   20.1639   13.8978   10.6648 C   0  0  0  0  0  0  0  0  0  0  0  0
   20.1743   14.8180   11.8601 C   0  0  0  0  0  0  0  0  0  0  0  0
   20.6880   13.8950   12.9203 C   0  0  0  0  0  0  0  0  0  0  0  0
   20.0716   12.6418   12.6379 O   0  0  0  0  0  0  0  0  0  0  0  0
  1  2  1  0
  3  2  1  6
  3  4  1  0
  4  5  2  0
  4  6  1  0
  6  7  1  0
  7  8  2  0
  8  9  1  0
  8 10  1  0
 10 11  2  0
 11 12  1  0
 12 13  1  0
 12 14  2  0
 14 15  1  0
  3 16  1  0
 16 17  1  0
 17 18  1  0
 18 19  1  0
 19  3  1  0
 14  7  1  0
M  END
>  <ref_pdb>  (457) 
c0270a

>  <inchikey>  (457) 
XBXLMTFGYXYIKI-LBPRGKRZSA-N

>  <original ID>  (457) 
XBXLMTFGYXYIKI-LBPRGKRZSA-N

>  <generation_date>  (457) 
None

>  <alias>  (457) 
None

>  <tags>  (457) 
[]

>  <ref_mols>  (457) 
c0692a,c1116a

>  <ref_url>  (457) 
None

>  <submitter_name>  (457) 
None

>  <exports>  (457) 
nan

>  <original SMILES>  (457) 
NC[C@]1(C(=O)Nc2c(F)ccc(F)c2N)CCCO1

>  <method>  (457) 
None

>  <submitter_email>  (457) 
None

>  <HIPPO ID>  (457) 
114416

$$$$
XBXLMTFGYXYIKI-GFCCVEGCSA-N
     RDKit          3D

 19 20  0  0  0  0  0  0  0  0999 V2000
   21.9647   11.6236   10.5146 N   0  0  0  0  0  0  0  0  0  0  0  0
   20.5414   11.3417   10.6931 C   0  0  0  0  0  0  0  0  0  0  0  0
   19.6825   12.5606   11.1110 C   0  0  1  0  0  0  0  0  0  0  0  0
   18.1542   12.1932   11.2400 C   0  0  0  0  0  0  0  0  0  0  0  0
   17.3917   12.9351   11.8739 O   0  0  0  0  0  0  0  0  0  0  0  0
   17.6869   11.0729   10.5697 N   0  0  0  0  0  0  0  0  0  0  0  0
   16.4993   10.3342   10.8451 C   0  0  0  0  0  0  0  0  0  0  0  0
   16.0428    9.4300    9.8601 C   0  0  0  0  0  0  0  0  0  0  0  0
   16.5818    9.4177    8.6421 F   0  0  0  0  0  0  0  0  0  0  0  0
   15.0662    8.4735   10.1006 C   0  0  0  0  0  0  0  0  0  0  0  0
   14.5263    8.3915   11.3612 C   0  0  0  0  0  0  0  0  0  0  0  0
   14.8640    9.3679   12.2932 C   0  0  0  0  0  0  0  0  0  0  0  0
   14.1978    9.4333   13.4491 F   0  0  0  0  0  0  0  0  0  0  0  0
   15.8229   10.3585   12.0685 C   0  0  0  0  0  0  0  0  0  0  0  0
   16.2088   11.1319   13.1898 N   0  0  0  0  0  0  0  0  0  0  0  0
   20.1911   13.1579   12.4387 C   0  0  0  0  0  0  0  0  0  0  0  0
   21.0639   14.3161   12.0413 C   0  0  0  0  0  0  0  0  0  0  0  0
   20.4063   14.7781   10.7750 C   0  0  0  0  0  0  0  0  0  0  0  0
   19.8544   13.6201   10.1375 O   0  0  0  0  0  0  0  0  0  0  0  0
  1  2  1  0
  3  2  1  6
  3  4  1  0
  4  5  2  0
  4  6  1  0
  6  7  1  0
  7  8  2  0
  8  9  1  0
  8 10  1  0
 10 11  2  0
 11 12  1  0
 12 13  1  0
 12 14  2  0
 14 15  1  0
  3 16  1  0
 16 17  1  0
 17 18  1  0
 18 19  1  0
 19  3  1  0
 14  7  1  0
M  END
>  <ref_pdb>  (458) 
c0270a

>  <inchikey>  (458) 
XBXLMTFGYXYIKI-GFCCVEGCSA-N

>  <original ID>  (458) 
XBXLMTFGYXYIKI-GFCCVEGCSA-N

>  <generation_date>  (458) 
None

>  <alias>  (458) 
None

>  <tags>  (458) 
[]

>  <ref_mols>  (458) 
c0692a,c1116a

>  <ref_url>  (458) 
None

>  <submitter_name>  (458) 
None

>  <exports>  (458) 
nan

>  <original SMILES>  (458) 
NC[C@@]1(C(=O)Nc2c(F)ccc(F)c2N)CCCO1

>  <method>  (458) 
None

>  <submitter_email>  (458) 
None

>  <HIPPO ID>  (458) 
114417

$$$$
LNFYLCMJCHFIRH-ZDUSSCGKSA-N
     RDKit          3D

 19 20  0  0  0  0  0  0  0  0999 V2000
   18.4461   10.3540   10.2762 C   0  0  0  0  0  0  0  0  0  0  0  0
   17.6041   11.4238   10.6802 N   0  0  0  0  0  0  0  0  0  0  0  0
   18.1668   12.5353   11.3152 C   0  0  0  0  0  0  0  0  0  0  0  0
   17.4000   13.3663   11.8372 O   0  0  0  0  0  0  0  0  0  0  0  0
   19.7753   12.8205   11.3741 C   0  0  1  0  0  0  0  0  0  0  0  0
   20.8296   11.7609   10.9130 C   0  0  0  0  0  0  0  0  0  0  0  0
   22.2515   12.1406   10.8688 N   0  0  0  0  0  0  0  0  0  0  0  0
   20.1322   14.2098   10.8142 C   0  0  0  0  0  0  0  0  0  0  0  0
   20.0841   15.1323   12.0036 C   0  0  0  0  0  0  0  0  0  0  0  0
   20.5523   14.2243   13.1042 C   0  0  0  0  0  0  0  0  0  0  0  0
   19.9750   12.9537   12.8118 O   0  0  0  0  0  0  0  0  0  0  0  0
   16.2703   10.9047   10.9066 C   0  0  0  0  0  0  0  0  0  0  0  0
   15.6910   10.1413    9.8545 C   0  0  0  0  0  0  0  0  0  0  0  0
   14.8796    9.0443   10.1054 C   0  0  0  0  0  0  0  0  0  0  0  0
   14.5990    8.7348   11.4208 C   0  0  0  0  0  0  0  0  0  0  0  0
   14.9779    9.6237   12.4356 C   0  0  0  0  0  0  0  0  0  0  0  0
   14.3985    9.3030   14.1983 Br  0  0  0  0  0  0  0  0  0  0  0  0
   15.7822   10.7482   12.2063 C   0  0  0  0  0  0  0  0  0  0  0  0
   16.3333   11.4449   13.3081 N   0  0  0  0  0  0  0  0  0  0  0  0
  1  2  1  0
  2  3  1  0
  3  4  2  0
  3  5  1  0
  5  6  1  6
  6  7  1  0
  5  8  1  0
  8  9  1  0
  9 10  1  0
 10 11  1  0
  2 12  1  0
 12 13  2  0
 13 14  1  0
 14 15  2  0
 15 16  1  0
 16 17  1  0
 16 18  2  0
 18 19  1  0
 11  5  1  0
 18 12  1  0
M  END
>  <ref_pdb>  (459) 
c0270a

>  <inchikey>  (459) 
LNFYLCMJCHFIRH-ZDUSSCGKSA-N

>  <original ID>  (459) 
LNFYLCMJCHFIRH-ZDUSSCGKSA-N

>  <generation_date>  (459) 
None

>  <alias>  (459) 
None

>  <tags>  (459) 
[]

>  <ref_mols>  (459) 
c0692a,c1116a

>  <ref_url>  (459) 
None

>  <submitter_name>  (459) 
None

>  <exports>  (459) 
nan

>  <original SMILES>  (459) 
CN(C(=O)[C@@]1(CN)CCCO1)c1cccc(Br)c1N

>  <method>  (459) 
None

>  <submitter_email>  (459) 
None

>  <HIPPO ID>  (459) 
114479

$$$$
RYIXYTCGRBBTNZ-LBPRGKRZSA-N
     RDKit          3D

 19 20  0  0  0  0  0  0  0  0999 V2000
   21.9083   11.6704   10.5757 N   0  0  0  0  0  0  0  0  0  0  0  0
   20.4830   11.3849   10.7252 C   0  0  0  0  0  0  0  0  0  0  0  0
   19.6567   12.5489   11.3131 C   0  0  2  0  0  0  0  0  0  0  0  0
   18.1028   12.2050   11.3513 C   0  0  0  0  0  0  0  0  0  0  0  0
   17.3406   12.8561   12.0744 O   0  0  0  0  0  0  0  0  0  0  0  0
   17.6266   11.1439   10.5776 N   0  0  0  0  0  0  0  0  0  0  0  0
   16.4734   10.3558   10.8566 C   0  0  0  0  0  0  0  0  0  0  0  0
   15.9480   10.2971   12.1330 C   0  0  0  0  0  0  0  0  0  0  0  0
   15.0568    9.2781   12.4823 C   0  0  0  0  0  0  0  0  0  0  0  0
   14.4712    9.3526   14.4447 I   0  0  0  0  0  0  0  0  0  0  0  0
   14.6657    8.3117   11.5521 C   0  0  0  0  0  0  0  0  0  0  0  0
   13.7120    6.9106   11.8953 Cl  0  0  0  0  0  0  0  0  0  0  0  0
   15.0713    8.4584   10.2422 C   0  0  0  0  0  0  0  0  0  0  0  0
   15.9348    9.4923    9.8859 C   0  0  0  0  0  0  0  0  0  0  0  0
   16.3501    9.4835    8.5632 N   0  0  0  0  0  0  0  0  0  0  0  0
   20.0125   13.9228   10.7477 C   0  0  0  0  0  0  0  0  0  0  0  0
   19.9020   14.8616   11.9198 C   0  0  0  0  0  0  0  0  0  0  0  0
   20.4784   14.0067   13.0045 C   0  0  0  0  0  0  0  0  0  0  0  0
   20.0698   12.6710   12.7028 O   0  0  0  0  0  0  0  0  0  0  0  0
  1  2  1  0
  3  2  1  6
  3  4  1  0
  4  5  2  0
  4  6  1  0
  6  7  1  0
  7  8  2  0
  8  9  1  0
  9 10  1  0
  9 11  2  0
 11 12  1  0
 11 13  1  0
 13 14  2  0
 14 15  1  0
  3 16  1  0
 16 17  1  0
 17 18  1  0
 18 19  1  0
 19  3  1  0
 14  7  1  0
M  END
>  <ref_pdb>  (460) 
c0270a

>  <inchikey>  (460) 
RYIXYTCGRBBTNZ-LBPRGKRZSA-N

>  <original ID>  (460) 
RYIXYTCGRBBTNZ-LBPRGKRZSA-N

>  <generation_date>  (460) 
None

>  <alias>  (460) 
None

>  <tags>  (460) 
[]

>  <ref_mols>  (460) 
c0692a,c1116a

>  <ref_url>  (460) 
None

>  <submitter_name>  (460) 
None

>  <exports>  (460) 
['/opt/xchem-fragalysis-2/maxwin/CHIKV_HIPPO/hippo_prod/CHIKV_prod11_recipes/Recipe_1GERJCJ_poses.sdf']

>  <original SMILES>  (460) 
NC[C@]1(C(=O)Nc2cc(I)c(Cl)cc2N)CCCO1

>  <method>  (460) 
None

>  <submitter_email>  (460) 
None

>  <HIPPO ID>  (460) 
114484

$$$$
RYIXYTCGRBBTNZ-GFCCVEGCSA-N
     RDKit          3D

 19 20  0  0  0  0  0  0  0  0999 V2000
   21.8076   11.7152   10.3310 N   0  0  0  0  0  0  0  0  0  0  0  0
   20.4366   11.3729   10.6995 C   0  0  0  0  0  0  0  0  0  0  0  0
   19.5670   12.5558   11.2102 C   0  0  1  0  0  0  0  0  0  0  0  0
   18.0767   12.0812   11.4733 C   0  0  0  0  0  0  0  0  0  0  0  0
   17.4327   12.5551   12.4143 O   0  0  0  0  0  0  0  0  0  0  0  0
   17.5259   11.1346   10.6107 N   0  0  0  0  0  0  0  0  0  0  0  0
   16.4090   10.2942   10.8805 C   0  0  0  0  0  0  0  0  0  0  0  0
   15.8958   10.1642   12.1580 C   0  0  0  0  0  0  0  0  0  0  0  0
   15.0091    9.1315   12.4705 C   0  0  0  0  0  0  0  0  0  0  0  0
   14.4299    9.1327   14.4404 I   0  0  0  0  0  0  0  0  0  0  0  0
   14.6097    8.2122   11.5003 C   0  0  0  0  0  0  0  0  0  0  0  0
   13.6330    6.8157   11.7875 Cl  0  0  0  0  0  0  0  0  0  0  0  0
   15.0152    8.4156   10.1966 C   0  0  0  0  0  0  0  0  0  0  0  0
   15.8742    9.4678    9.8775 C   0  0  0  0  0  0  0  0  0  0  0  0
   16.3044    9.5008    8.5602 N   0  0  0  0  0  0  0  0  0  0  0  0
   20.1753   13.1809   12.4786 C   0  0  0  0  0  0  0  0  0  0  0  0
   21.0606   14.2937   11.9909 C   0  0  0  0  0  0  0  0  0  0  0  0
   20.3625   14.7296   10.7359 C   0  0  0  0  0  0  0  0  0  0  0  0
   19.5956   13.6233   10.2453 O   0  0  0  0  0  0  0  0  0  0  0  0
  1  2  1  0
  3  2  1  6
  3  4  1  0
  4  5  2  0
  4  6  1  0
  6  7  1  0
  7  8  2  0
  8  9  1  0
  9 10  1  0
  9 11  2  0
 11 12  1  0
 11 13  1  0
 13 14  2  0
 14 15  1  0
  3 16  1  0
 16 17  1  0
 17 18  1  0
 18 19  1  0
 19  3  1  0
 14  7  1  0
M  END
>  <ref_pdb>  (461) 
c0270a

>  <inchikey>  (461) 
RYIXYTCGRBBTNZ-GFCCVEGCSA-N

>  <original ID>  (461) 
RYIXYTCGRBBTNZ-GFCCVEGCSA-N

>  <generation_date>  (461) 
None

>  <alias>  (461) 
None

>  <tags>  (461) 
[]

>  <ref_mols>  (461) 
c0692a,c1116a

>  <ref_url>  (461) 
None

>  <submitter_name>  (461) 
None

>  <exports>  (461) 
['/opt/xchem-fragalysis-2/maxwin/CHIKV_HIPPO/hippo_prod/CHIKV_prod11_recipes/Recipe_1GERJCJ_poses.sdf']

>  <original SMILES>  (461) 
NC[C@@]1(C(=O)Nc2cc(I)c(Cl)cc2N)CCCO1

>  <method>  (461) 
None

>  <submitter_email>  (461) 
None

>  <HIPPO ID>  (461) 
114485

$$$$
VZWQKSMBJSBKQE-LBPRGKRZSA-N
     RDKit          3D

 19 20  0  0  0  0  0  0  0  0999 V2000
   21.8746   11.3477   10.7719 N   0  0  0  0  0  0  0  0  0  0  0  0
   20.4236   11.2713   10.7422 C   0  0  0  0  0  0  0  0  0  0  0  0
   19.6500   12.4992   11.2412 C   0  0  2  0  0  0  0  0  0  0  0  0
   18.0875   12.2130   11.2951 C   0  0  0  0  0  0  0  0  0  0  0  0
   17.3478   12.9105   11.9967 O   0  0  0  0  0  0  0  0  0  0  0  0
   17.5844   11.1478   10.5503 N   0  0  0  0  0  0  0  0  0  0  0  0
   16.4279   10.3751   10.8487 C   0  0  0  0  0  0  0  0  0  0  0  0
   15.8753   10.3519   12.1154 C   0  0  0  0  0  0  0  0  0  0  0  0
   14.9908    9.3295   12.4714 C   0  0  0  0  0  0  0  0  0  0  0  0
   14.3649    9.4626   14.0564 Cl  0  0  0  0  0  0  0  0  0  0  0  0
   14.6683    8.3064   11.5719 C   0  0  0  0  0  0  0  0  0  0  0  0
   13.6321    6.5264   12.0128 I   0  0  0  0  0  0  0  0  0  0  0  0
   15.0832    8.4324   10.2605 C   0  0  0  0  0  0  0  0  0  0  0  0
   15.9087    9.4897    9.8874 C   0  0  0  0  0  0  0  0  0  0  0  0
   16.3247    9.4851    8.5646 N   0  0  0  0  0  0  0  0  0  0  0  0
   20.1020   13.7994   10.5809 C   0  0  0  0  0  0  0  0  0  0  0  0
   20.9915   14.4959   11.5825 C   0  0  0  0  0  0  0  0  0  0  0  0
   20.3968   14.0352   12.8784 C   0  0  0  0  0  0  0  0  0  0  0  0
   20.0316   12.6819   12.6328 O   0  0  0  0  0  0  0  0  0  0  0  0
  1  2  1  0
  3  2  1  6
  3  4  1  0
  4  5  2  0
  4  6  1  0
  6  7  1  0
  7  8  2  0
  8  9  1  0
  9 10  1  0
  9 11  2  0
 11 12  1  0
 11 13  1  0
 13 14  2  0
 14 15  1  0
  3 16  1  0
 16 17  1  0
 17 18  1  0
 18 19  1  0
 19  3  1  0
 14  7  1  0
M  END
>  <ref_pdb>  (462) 
c0270a

>  <inchikey>  (462) 
VZWQKSMBJSBKQE-LBPRGKRZSA-N

>  <original ID>  (462) 
VZWQKSMBJSBKQE-LBPRGKRZSA-N

>  <generation_date>  (462) 
None

>  <alias>  (462) 
None

>  <tags>  (462) 
[]

>  <ref_mols>  (462) 
c0692a,c1116a

>  <ref_url>  (462) 
None

>  <submitter_name>  (462) 
None

>  <exports>  (462) 
['/opt/xchem-fragalysis-2/maxwin/CHIKV_HIPPO/hippo_prod/CHIKV_prod11_recipes/Recipe_1GERJCJ_poses.sdf']

>  <original SMILES>  (462) 
NC[C@]1(C(=O)Nc2cc(Cl)c(I)cc2N)CCCO1

>  <method>  (462) 
None

>  <submitter_email>  (462) 
None

>  <HIPPO ID>  (462) 
114486

$$$$
VZWQKSMBJSBKQE-GFCCVEGCSA-N
     RDKit          3D

 19 20  0  0  0  0  0  0  0  0999 V2000
   21.8014   11.5640   10.5013 N   0  0  0  0  0  0  0  0  0  0  0  0
   20.3796   11.3593   10.7563 C   0  0  0  0  0  0  0  0  0  0  0  0
   19.5411   12.5967   11.1553 C   0  0  1  0  0  0  0  0  0  0  0  0
   18.0188   12.1845   11.3844 C   0  0  0  0  0  0  0  0  0  0  0  0
   17.3236   12.7966   12.2016 O   0  0  0  0  0  0  0  0  0  0  0  0
   17.4997   11.1416   10.6332 N   0  0  0  0  0  0  0  0  0  0  0  0
   16.3679   10.3459   10.9603 C   0  0  0  0  0  0  0  0  0  0  0  0
   15.8001   10.3394   12.2209 C   0  0  0  0  0  0  0  0  0  0  0  0
   14.9283    9.3125   12.5913 C   0  0  0  0  0  0  0  0  0  0  0  0
   14.2894    9.4671   14.1683 Cl  0  0  0  0  0  0  0  0  0  0  0  0
   14.6226    8.2712   11.7103 C   0  0  0  0  0  0  0  0  0  0  0  0
   13.5756    6.5005   12.1668 I   0  0  0  0  0  0  0  0  0  0  0  0
   15.0565    8.3730   10.4041 C   0  0  0  0  0  0  0  0  0  0  0  0
   15.8876    9.4254   10.0184 C   0  0  0  0  0  0  0  0  0  0  0  0
   16.3972    9.3607    8.7416 N   0  0  0  0  0  0  0  0  0  0  0  0
   20.0623   13.2432   12.4516 C   0  0  0  0  0  0  0  0  0  0  0  0
   19.9795   14.7224   12.1926 C   0  0  0  0  0  0  0  0  0  0  0  0
   20.3423   14.7691   10.7385 C   0  0  0  0  0  0  0  0  0  0  0  0
   19.7260   13.6145   10.1504 O   0  0  0  0  0  0  0  0  0  0  0  0
  1  2  1  0
  3  2  1  6
  3  4  1  0
  4  5  2  0
  4  6  1  0
  6  7  1  0
  7  8  2  0
  8  9  1  0
  9 10  1  0
  9 11  2  0
 11 12  1  0
 11 13  1  0
 13 14  2  0
 14 15  1  0
  3 16  1  0
 16 17  1  0
 17 18  1  0
 18 19  1  0
 19  3  1  0
 14  7  1  0
M  END
>  <ref_pdb>  (463) 
c0270a

>  <inchikey>  (463) 
VZWQKSMBJSBKQE-GFCCVEGCSA-N

>  <original ID>  (463) 
VZWQKSMBJSBKQE-GFCCVEGCSA-N

>  <generation_date>  (463) 
None

>  <alias>  (463) 
None

>  <tags>  (463) 
[]

>  <ref_mols>  (463) 
c0692a,c1116a

>  <ref_url>  (463) 
None

>  <submitter_name>  (463) 
None

>  <exports>  (463) 
['/opt/xchem-fragalysis-2/maxwin/CHIKV_HIPPO/hippo_prod/CHIKV_prod11_recipes/Recipe_1GERJCJ_poses.sdf']

>  <original SMILES>  (463) 
NC[C@@]1(C(=O)Nc2cc(Cl)c(I)cc2N)CCCO1

>  <method>  (463) 
None

>  <submitter_email>  (463) 
None

>  <HIPPO ID>  (463) 
114487

$$$$
BARQZYVHTDJRLS-CYBMUJFWSA-N
     RDKit          3D

 19 20  0  0  0  0  0  0  0  0999 V2000
   14.3544    9.5440   13.9860 C   0  0  0  0  0  0  0  0  0  0  0  0
   14.9223    9.3775   12.6204 C   0  0  0  0  0  0  0  0  0  0  0  0
   15.8296   10.3764   12.2360 C   0  0  0  0  0  0  0  0  0  0  0  0
   16.4091   10.3673   10.9797 C   0  0  0  0  0  0  0  0  0  0  0  0
   17.5546   11.1490   10.6636 N   0  0  0  0  0  0  0  0  0  0  0  0
   18.1008   12.1624   11.4412 C   0  0  0  0  0  0  0  0  0  0  0  0
   17.4298   12.7605   12.2885 O   0  0  0  0  0  0  0  0  0  0  0  0
   19.6155   12.5674   11.1901 C   0  0  2  0  0  0  0  0  0  0  0  0
   20.4501   11.3463   10.7206 C   0  0  0  0  0  0  0  0  0  0  0  0
   21.8720   11.6049   10.5013 N   0  0  0  0  0  0  0  0  0  0  0  0
   20.2196   13.1787   12.4722 C   0  0  0  0  0  0  0  0  0  0  0  0
   21.0922   14.3082   11.9985 C   0  0  0  0  0  0  0  0  0  0  0  0
   20.3576   14.7657   10.7740 C   0  0  0  0  0  0  0  0  0  0  0  0
   19.7268   13.6137   10.1998 O   0  0  0  0  0  0  0  0  0  0  0  0
   15.9168    9.4503   10.0404 C   0  0  0  0  0  0  0  0  0  0  0  0
   16.4215    9.3672    8.7603 N   0  0  0  0  0  0  0  0  0  0  0  0
   15.0693    8.4155   10.4332 C   0  0  0  0  0  0  0  0  0  0  0  0
   14.6179    8.3397   11.7331 C   0  0  0  0  0  0  0  0  0  0  0  0
   13.6893    6.9369   12.1314 Cl  0  0  0  0  0  0  0  0  0  0  0  0
  1  2  1  0
  2  3  2  0
  3  4  1  0
  4  5  1  0
  5  6  1  0
  6  7  2  0
  6  8  1  0
  8  9  1  6
  9 10  1  0
  8 11  1  0
 11 12  1  0
 12 13  1  0
 13 14  1  0
  4 15  2  0
 15 16  1  0
 15 17  1  0
 17 18  2  0
 18 19  1  0
 18  2  1  0
 14  8  1  0
M  END
>  <ref_pdb>  (464) 
c0270a

>  <inchikey>  (464) 
BARQZYVHTDJRLS-CYBMUJFWSA-N

>  <original ID>  (464) 
BARQZYVHTDJRLS-CYBMUJFWSA-N

>  <generation_date>  (464) 
None

>  <alias>  (464) 
None

>  <tags>  (464) 
[]

>  <ref_mols>  (464) 
c0692a,c1116a

>  <ref_url>  (464) 
None

>  <submitter_name>  (464) 
None

>  <exports>  (464) 
nan

>  <original SMILES>  (464) 
Cc1cc(NC(=O)[C@]2(CN)CCCO2)c(N)cc1Cl

>  <method>  (464) 
None

>  <submitter_email>  (464) 
None

>  <HIPPO ID>  (464) 
114496

$$$$
BARQZYVHTDJRLS-ZDUSSCGKSA-N
     RDKit          3D

 19 20  0  0  0  0  0  0  0  0999 V2000
   14.4026    9.5152   13.8813 C   0  0  0  0  0  0  0  0  0  0  0  0
   14.9619    9.3794   12.5081 C   0  0  0  0  0  0  0  0  0  0  0  0
   15.8574   10.3942   12.1378 C   0  0  0  0  0  0  0  0  0  0  0  0
   16.4227   10.4124   10.8757 C   0  0  0  0  0  0  0  0  0  0  0  0
   17.5641   11.2100   10.5915 N   0  0  0  0  0  0  0  0  0  0  0  0
   18.0293   12.2869   11.3485 C   0  0  0  0  0  0  0  0  0  0  0  0
   17.2623   12.9700   12.0345 O   0  0  0  0  0  0  0  0  0  0  0  0
   19.5874   12.5978   11.3385 C   0  0  1  0  0  0  0  0  0  0  0  0
   20.3692   11.3887   10.7923 C   0  0  0  0  0  0  0  0  0  0  0  0
   21.8192   11.4343   10.9130 N   0  0  0  0  0  0  0  0  0  0  0  0
   20.0311   13.9361   10.7595 C   0  0  0  0  0  0  0  0  0  0  0  0
   19.8712   14.9135   11.8943 C   0  0  0  0  0  0  0  0  0  0  0  0
   20.3340   14.0787   13.0473 C   0  0  0  0  0  0  0  0  0  0  0  0
   19.9591   12.7353   12.7367 O   0  0  0  0  0  0  0  0  0  0  0  0
   15.9298    9.5067    9.9195 C   0  0  0  0  0  0  0  0  0  0  0  0
   16.3650    9.4795    8.6010 N   0  0  0  0  0  0  0  0  0  0  0  0
   15.0954    8.4592   10.2955 C   0  0  0  0  0  0  0  0  0  0  0  0
   14.6512    8.3592   11.5979 C   0  0  0  0  0  0  0  0  0  0  0  0
   13.7249    6.9497   11.9771 Cl  0  0  0  0  0  0  0  0  0  0  0  0
  1  2  1  0
  2  3  2  0
  3  4  1  0
  4  5  1  0
  5  6  1  0
  6  7  2  0
  6  8  1  0
  8  9  1  6
  9 10  1  0
  8 11  1  0
 11 12  1  0
 12 13  1  0
 13 14  1  0
  4 15  2  0
 15 16  1  0
 15 17  1  0
 17 18  2  0
 18 19  1  0
 18  2  1  0
 14  8  1  0
M  END
>  <ref_pdb>  (465) 
c0270a

>  <inchikey>  (465) 
BARQZYVHTDJRLS-ZDUSSCGKSA-N

>  <original ID>  (465) 
BARQZYVHTDJRLS-ZDUSSCGKSA-N

>  <generation_date>  (465) 
None

>  <alias>  (465) 
None

>  <tags>  (465) 
[]

>  <ref_mols>  (465) 
c0692a,c1116a

>  <ref_url>  (465) 
None

>  <submitter_name>  (465) 
None

>  <exports>  (465) 
nan

>  <original SMILES>  (465) 
Cc1cc(NC(=O)[C@@]2(CN)CCCO2)c(N)cc1Cl

>  <method>  (465) 
None

>  <submitter_email>  (465) 
None

>  <HIPPO ID>  (465) 
114497

$$$$
AQSQXTACNREPGG-CYBMUJFWSA-N
     RDKit          3D

 19 20  0  0  0  0  0  0  0  0999 V2000
   14.3719    9.5199   13.9829 C   0  0  0  0  0  0  0  0  0  0  0  0
   14.9259    9.3530   12.6113 C   0  0  0  0  0  0  0  0  0  0  0  0
   15.8286   10.3564   12.2209 C   0  0  0  0  0  0  0  0  0  0  0  0
   16.3972   10.3524   10.9595 C   0  0  0  0  0  0  0  0  0  0  0  0
   17.5395   11.1328   10.6326 N   0  0  0  0  0  0  0  0  0  0  0  0
   18.0625   12.1759   11.3814 C   0  0  0  0  0  0  0  0  0  0  0  0
   17.3684   12.7958   12.1947 O   0  0  0  0  0  0  0  0  0  0  0  0
   19.5802   12.5879   11.1446 C   0  0  2  0  0  0  0  0  0  0  0  0
   20.4385   11.3643   10.7378 C   0  0  0  0  0  0  0  0  0  0  0  0
   21.8582   11.6549   10.5217 N   0  0  0  0  0  0  0  0  0  0  0  0
   20.1146   13.2385   12.4343 C   0  0  0  0  0  0  0  0  0  0  0  0
   20.0027   14.7167   12.1805 C   0  0  0  0  0  0  0  0  0  0  0  0
   20.3465   14.7706   10.7217 C   0  0  0  0  0  0  0  0  0  0  0  0
   19.7315   13.6127   10.1364 O   0  0  0  0  0  0  0  0  0  0  0  0
   15.8983    9.4407   10.0223 C   0  0  0  0  0  0  0  0  0  0  0  0
   16.3862    9.3738    8.7358 N   0  0  0  0  0  0  0  0  0  0  0  0
   15.0599    8.4001   10.4191 C   0  0  0  0  0  0  0  0  0  0  0  0
   14.6212    8.3142   11.7243 C   0  0  0  0  0  0  0  0  0  0  0  0
   13.6328    6.7451   12.1495 Br  0  0  0  0  0  0  0  0  0  0  0  0
  1  2  1  0
  2  3  2  0
  3  4  1  0
  4  5  1  0
  5  6  1  0
  6  7  2  0
  6  8  1  0
  8  9  1  6
  9 10  1  0
  8 11  1  0
 11 12  1  0
 12 13  1  0
 13 14  1  0
  4 15  2  0
 15 16  1  0
 15 17  1  0
 17 18  2  0
 18 19  1  0
 18  2  1  0
 14  8  1  0
M  END
>  <ref_pdb>  (466) 
c0270a

>  <inchikey>  (466) 
AQSQXTACNREPGG-CYBMUJFWSA-N

>  <original ID>  (466) 
AQSQXTACNREPGG-CYBMUJFWSA-N

>  <generation_date>  (466) 
None

>  <alias>  (466) 
None

>  <tags>  (466) 
[]

>  <ref_mols>  (466) 
c0692a,c1116a

>  <ref_url>  (466) 
None

>  <submitter_name>  (466) 
None

>  <exports>  (466) 
nan

>  <original SMILES>  (466) 
Cc1cc(NC(=O)[C@]2(CN)CCCO2)c(N)cc1Br

>  <method>  (466) 
None

>  <submitter_email>  (466) 
None

>  <HIPPO ID>  (466) 
114504

$$$$
AQSQXTACNREPGG-ZDUSSCGKSA-N
     RDKit          3D

 19 20  0  0  0  0  0  0  0  0999 V2000
   14.4236    9.4763   13.8550 C   0  0  0  0  0  0  0  0  0  0  0  0
   14.9858    9.3263   12.4837 C   0  0  0  0  0  0  0  0  0  0  0  0
   15.9063   10.3243   12.1196 C   0  0  0  0  0  0  0  0  0  0  0  0
   16.4719   10.3440   10.8570 C   0  0  0  0  0  0  0  0  0  0  0  0
   17.6412   11.1041   10.5705 N   0  0  0  0  0  0  0  0  0  0  0  0
   18.1602   12.1422   11.3388 C   0  0  0  0  0  0  0  0  0  0  0  0
   17.4383   12.8124   12.0864 O   0  0  0  0  0  0  0  0  0  0  0  0
   19.7168   12.4559   11.2505 C   0  0  1  0  0  0  0  0  0  0  0  0
   20.5423   11.2885   10.6795 C   0  0  0  0  0  0  0  0  0  0  0  0
   21.9399   11.6246   10.4202 N   0  0  0  0  0  0  0  0  0  0  0  0
   20.0564   13.8116   10.6308 C   0  0  0  0  0  0  0  0  0  0  0  0
   20.9655   14.5145   11.6094 C   0  0  0  0  0  0  0  0  0  0  0  0
   20.4677   13.9673   12.9122 C   0  0  0  0  0  0  0  0  0  0  0  0
   20.1583   12.6066   12.6295 O   0  0  0  0  0  0  0  0  0  0  0  0
   15.9424    9.4716    9.8923 C   0  0  0  0  0  0  0  0  0  0  0  0
   16.3605    9.4627    8.5686 N   0  0  0  0  0  0  0  0  0  0  0  0
   15.0903    8.4350   10.2601 C   0  0  0  0  0  0  0  0  0  0  0  0
   14.6571    8.3192   11.5662 C   0  0  0  0  0  0  0  0  0  0  0  0
   13.6566    6.7492   11.9583 Br  0  0  0  0  0  0  0  0  0  0  0  0
  1  2  1  0
  2  3  2  0
  3  4  1  0
  4  5  1  0
  5  6  1  0
  6  7  2  0
  6  8  1  0
  8  9  1  6
  9 10  1  0
  8 11  1  0
 11 12  1  0
 12 13  1  0
 13 14  1  0
  4 15  2  0
 15 16  1  0
 15 17  1  0
 17 18  2  0
 18 19  1  0
 18  2  1  0
 14  8  1  0
M  END
>  <ref_pdb>  (467) 
c0270a

>  <inchikey>  (467) 
AQSQXTACNREPGG-ZDUSSCGKSA-N

>  <original ID>  (467) 
AQSQXTACNREPGG-ZDUSSCGKSA-N

>  <generation_date>  (467) 
None

>  <alias>  (467) 
None

>  <tags>  (467) 
[]

>  <ref_mols>  (467) 
c0692a,c1116a

>  <ref_url>  (467) 
None

>  <submitter_name>  (467) 
None

>  <exports>  (467) 
nan

>  <original SMILES>  (467) 
Cc1cc(NC(=O)[C@@]2(CN)CCCO2)c(N)cc1Br

>  <method>  (467) 
None

>  <submitter_email>  (467) 
None

>  <HIPPO ID>  (467) 
114505

$$$$
KDOLGBFVMWKMLF-LBPRGKRZSA-N
     RDKit          3D

 19 20  0  0  0  0  0  0  0  0999 V2000
   21.9294   11.4916   10.9979 N   0  0  0  0  0  0  0  0  0  0  0  0
   20.4857   11.4256   10.8277 C   0  0  0  0  0  0  0  0  0  0  0  0
   19.6761   12.6322   11.3436 C   0  0  2  0  0  0  0  0  0  0  0  0
   18.1259   12.3273   11.3204 C   0  0  0  0  0  0  0  0  0  0  0  0
   17.3354   13.0373   11.9505 O   0  0  0  0  0  0  0  0  0  0  0  0
   17.6997   11.2204   10.6017 N   0  0  0  0  0  0  0  0  0  0  0  0
   16.5170   10.4559   10.7717 C   0  0  0  0  0  0  0  0  0  0  0  0
   16.1759    9.5814    9.7274 C   0  0  0  0  0  0  0  0  0  0  0  0
   15.2234    8.5768    9.8841 C   0  0  0  0  0  0  0  0  0  0  0  0
   14.6582    8.3632   11.1222 C   0  0  0  0  0  0  0  0  0  0  0  0
   13.6600    6.7688   11.3617 Br  0  0  0  0  0  0  0  0  0  0  0  0
   14.9036    9.3013   12.1205 C   0  0  0  0  0  0  0  0  0  0  0  0
   14.3097    9.2568   13.3521 O   0  0  0  0  0  0  0  0  0  0  0  0
   15.7666   10.3956   11.9431 C   0  0  0  0  0  0  0  0  0  0  0  0
   16.0052   11.1694   13.1124 N   0  0  0  0  0  0  0  0  0  0  0  0
   20.1115   13.9693   10.7536 C   0  0  0  0  0  0  0  0  0  0  0  0
   19.9506   14.9515   11.8849 C   0  0  0  0  0  0  0  0  0  0  0  0
   20.3954   14.1197   13.0496 C   0  0  0  0  0  0  0  0  0  0  0  0
   19.9945   12.7804   12.7528 O   0  0  0  0  0  0  0  0  0  0  0  0
  1  2  1  0
  3  2  1  6
  3  4  1  0
  4  5  2  0
  4  6  1  0
  6  7  1  0
  7  8  2  0
  8  9  1  0
  9 10  2  0
 10 11  1  0
 10 12  1  0
 12 13  1  0
 12 14  2  0
 14 15  1  0
  3 16  1  0
 16 17  1  0
 17 18  1  0
 18 19  1  0
 19  3  1  0
 14  7  1  0
M  END
>  <ref_pdb>  (468) 
c0270a

>  <inchikey>  (468) 
KDOLGBFVMWKMLF-LBPRGKRZSA-N

>  <original ID>  (468) 
KDOLGBFVMWKMLF-LBPRGKRZSA-N

>  <generation_date>  (468) 
None

>  <alias>  (468) 
None

>  <tags>  (468) 
[]

>  <ref_mols>  (468) 
c0692a,c1116a

>  <ref_url>  (468) 
None

>  <submitter_name>  (468) 
None

>  <exports>  (468) 
nan

>  <original SMILES>  (468) 
NC[C@]1(C(=O)Nc2ccc(Br)c(O)c2N)CCCO1

>  <method>  (468) 
None

>  <submitter_email>  (468) 
None

>  <HIPPO ID>  (468) 
114506

$$$$
KDOLGBFVMWKMLF-GFCCVEGCSA-N
     RDKit          3D

 19 20  0  0  0  0  0  0  0  0999 V2000
   21.9546   11.6976   10.5361 N   0  0  0  0  0  0  0  0  0  0  0  0
   20.5397   11.3875   10.7516 C   0  0  0  0  0  0  0  0  0  0  0  0
   19.6627   12.6084   11.1294 C   0  0  1  0  0  0  0  0  0  0  0  0
   18.1442   12.2044   11.3106 C   0  0  0  0  0  0  0  0  0  0  0  0
   17.4014   12.8627   12.0473 O   0  0  0  0  0  0  0  0  0  0  0  0
   17.6746   11.1381   10.5689 N   0  0  0  0  0  0  0  0  0  0  0  0
   16.5017   10.3645   10.7633 C   0  0  0  0  0  0  0  0  0  0  0  0
   16.1147    9.5528    9.6832 C   0  0  0  0  0  0  0  0  0  0  0  0
   15.1365    8.5707    9.8055 C   0  0  0  0  0  0  0  0  0  0  0  0
   14.6040    8.3000   11.0447 C   0  0  0  0  0  0  0  0  0  0  0  0
   13.5929    6.7056   11.2338 Br  0  0  0  0  0  0  0  0  0  0  0  0
   14.9034    9.1685   12.0917 C   0  0  0  0  0  0  0  0  0  0  0  0
   14.3884    8.9893   13.3450 O   0  0  0  0  0  0  0  0  0  0  0  0
   15.7739   10.2648   11.9512 C   0  0  0  0  0  0  0  0  0  0  0  0
   16.0091   11.0321   13.1246 N   0  0  0  0  0  0  0  0  0  0  0  0
   20.1530   13.2703   12.4284 C   0  0  0  0  0  0  0  0  0  0  0  0
   20.0420   14.7462   12.1581 C   0  0  0  0  0  0  0  0  0  0  0  0
   20.4075   14.7949   10.7028 C   0  0  0  0  0  0  0  0  0  0  0  0
   19.8164   13.6269   10.1126 O   0  0  0  0  0  0  0  0  0  0  0  0
  1  2  1  0
  3  2  1  6
  3  4  1  0
  4  5  2  0
  4  6  1  0
  6  7  1  0
  7  8  2  0
  8  9  1  0
  9 10  2  0
 10 11  1  0
 10 12  1  0
 12 13  1  0
 12 14  2  0
 14 15  1  0
  3 16  1  0
 16 17  1  0
 17 18  1  0
 18 19  1  0
 19  3  1  0
 14  7  1  0
M  END
>  <ref_pdb>  (469) 
c0270a

>  <inchikey>  (469) 
KDOLGBFVMWKMLF-GFCCVEGCSA-N

>  <original ID>  (469) 
KDOLGBFVMWKMLF-GFCCVEGCSA-N

>  <generation_date>  (469) 
None

>  <alias>  (469) 
None

>  <tags>  (469) 
[]

>  <ref_mols>  (469) 
c0692a,c1116a

>  <ref_url>  (469) 
None

>  <submitter_name>  (469) 
None

>  <exports>  (469) 
nan

>  <original SMILES>  (469) 
NC[C@@]1(C(=O)Nc2ccc(Br)c(O)c2N)CCCO1

>  <method>  (469) 
None

>  <submitter_email>  (469) 
None

>  <HIPPO ID>  (469) 
114507

$$$$
YLZXRWHQNBEKKV-LBPRGKRZSA-N
     RDKit          3D

 19 20  0  0  0  0  0  0  0  0999 V2000
   21.9143   11.3682   10.8469 N   0  0  0  0  0  0  0  0  0  0  0  0
   20.4625   11.2960   10.7594 C   0  0  0  0  0  0  0  0  0  0  0  0
   19.6846   12.5349   11.2266 C   0  0  2  0  0  0  0  0  0  0  0  0
   18.1232   12.2876   11.2061 C   0  0  0  0  0  0  0  0  0  0  0  0
   17.3552   13.1142   11.7110 O   0  0  0  0  0  0  0  0  0  0  0  0
   17.6589   11.1326   10.5777 N   0  0  0  0  0  0  0  0  0  0  0  0
   16.4995   10.3900   10.9338 C   0  0  0  0  0  0  0  0  0  0  0  0
   15.9089    9.5230    9.9874 C   0  0  0  0  0  0  0  0  0  0  0  0
   16.2750    9.5051    8.6447 N   0  0  0  0  0  0  0  0  0  0  0  0
   15.0363    8.5113   10.3929 C   0  0  0  0  0  0  0  0  0  0  0  0
   14.6228    8.4472   11.7094 C   0  0  0  0  0  0  0  0  0  0  0  0
   15.0372    9.4381   12.5914 C   0  0  0  0  0  0  0  0  0  0  0  0
   14.3192    9.5464   14.3198 Br  0  0  0  0  0  0  0  0  0  0  0  0
   16.0035   10.3698   12.2310 C   0  0  0  0  0  0  0  0  0  0  0  0
   16.5490   11.1523   13.2104 O   0  0  0  0  0  0  0  0  0  0  0  0
   20.1695   13.8291   10.5677 C   0  0  0  0  0  0  0  0  0  0  0  0
   21.0045   14.5378   11.6074 C   0  0  0  0  0  0  0  0  0  0  0  0
   20.3536   14.0817   12.8785 C   0  0  0  0  0  0  0  0  0  0  0  0
   20.0149   12.7213   12.6294 O   0  0  0  0  0  0  0  0  0  0  0  0
  1  2  1  0
  3  2  1  6
  3  4  1  0
  4  5  2  0
  4  6  1  0
  6  7  1  0
  7  8  2  0
  8  9  1  0
  8 10  1  0
 10 11  2  0
 11 12  1  0
 12 13  1  0
 12 14  2  0
 14 15  1  0
  3 16  1  0
 16 17  1  0
 17 18  1  0
 18 19  1  0
 19  3  1  0
 14  7  1  0
M  END
>  <ref_pdb>  (470) 
c0270a

>  <inchikey>  (470) 
YLZXRWHQNBEKKV-LBPRGKRZSA-N

>  <original ID>  (470) 
YLZXRWHQNBEKKV-LBPRGKRZSA-N

>  <generation_date>  (470) 
None

>  <alias>  (470) 
None

>  <tags>  (470) 
[]

>  <ref_mols>  (470) 
c0692a,c1116a

>  <ref_url>  (470) 
None

>  <submitter_name>  (470) 
None

>  <exports>  (470) 
nan

>  <original SMILES>  (470) 
NC[C@]1(C(=O)Nc2c(N)ccc(Br)c2O)CCCO1

>  <method>  (470) 
None

>  <submitter_email>  (470) 
None

>  <HIPPO ID>  (470) 
114508

$$$$
YLZXRWHQNBEKKV-GFCCVEGCSA-N
     RDKit          3D

 19 20  0  0  0  0  0  0  0  0999 V2000
   21.9279   11.6047   10.4862 N   0  0  0  0  0  0  0  0  0  0  0  0
   20.5034   11.3441   10.6911 C   0  0  0  0  0  0  0  0  0  0  0  0
   19.6693   12.5749   11.1229 C   0  0  1  0  0  0  0  0  0  0  0  0
   18.1411   12.2261   11.2879 C   0  0  0  0  0  0  0  0  0  0  0  0
   17.3934   12.9740   11.9339 O   0  0  0  0  0  0  0  0  0  0  0  0
   17.6270   11.1081   10.6550 N   0  0  0  0  0  0  0  0  0  0  0  0
   16.4605   10.3764   11.0365 C   0  0  0  0  0  0  0  0  0  0  0  0
   15.9110    9.4597   10.1154 C   0  0  0  0  0  0  0  0  0  0  0  0
   16.3656    9.3642    8.8124 N   0  0  0  0  0  0  0  0  0  0  0  0
   15.0434    8.4476   10.5416 C   0  0  0  0  0  0  0  0  0  0  0  0
   14.6258    8.4037   11.8547 C   0  0  0  0  0  0  0  0  0  0  0  0
   15.0130    9.4239   12.7128 C   0  0  0  0  0  0  0  0  0  0  0  0
   14.2752    9.5186   14.4331 Br  0  0  0  0  0  0  0  0  0  0  0  0
   15.9328   10.3928   12.3255 C   0  0  0  0  0  0  0  0  0  0  0  0
   16.3532   11.2592   13.2949 O   0  0  0  0  0  0  0  0  0  0  0  0
   20.2122   13.1686   12.4387 C   0  0  0  0  0  0  0  0  0  0  0  0
   21.0885   14.3172   12.0202 C   0  0  0  0  0  0  0  0  0  0  0  0
   20.4057   14.7866   10.7702 C   0  0  0  0  0  0  0  0  0  0  0  0
   19.8343   13.6289   10.1430 O   0  0  0  0  0  0  0  0  0  0  0  0
  1  2  1  0
  3  2  1  6
  3  4  1  0
  4  5  2  0
  4  6  1  0
  6  7  1  0
  7  8  2  0
  8  9  1  0
  8 10  1  0
 10 11  2  0
 11 12  1  0
 12 13  1  0
 12 14  2  0
 14 15  1  0
  3 16  1  0
 16 17  1  0
 17 18  1  0
 18 19  1  0
 19  3  1  0
 14  7  1  0
M  END
>  <ref_pdb>  (471) 
c0270a

>  <inchikey>  (471) 
YLZXRWHQNBEKKV-GFCCVEGCSA-N

>  <original ID>  (471) 
YLZXRWHQNBEKKV-GFCCVEGCSA-N

>  <generation_date>  (471) 
None

>  <alias>  (471) 
None

>  <tags>  (471) 
[]

>  <ref_mols>  (471) 
c0692a,c1116a

>  <ref_url>  (471) 
None

>  <submitter_name>  (471) 
None

>  <exports>  (471) 
nan

>  <original SMILES>  (471) 
NC[C@@]1(C(=O)Nc2c(N)ccc(Br)c2O)CCCO1

>  <method>  (471) 
None

>  <submitter_email>  (471) 
None

>  <HIPPO ID>  (471) 
114509

$$$$
GQCSBFHMMIBQLP-CQSZACIVSA-N
     RDKit          3D

 19 21  0  0  0  0  0  0  0  0999 V2000
   14.8948   16.2565   13.2604 N   0  0  0  0  0  0  0  0  0  0  0  0
   15.0338   15.0026   14.0123 C   0  0  0  0  0  0  0  0  0  0  0  0
   15.8507   13.8056   13.4225 C   0  0  1  0  0  0  0  0  0  0  0  0
   14.8160   12.7356   12.8974 C   0  0  0  0  0  0  0  0  0  0  0  0
   13.8045   13.0775   12.2870 O   0  0  0  0  0  0  0  0  0  0  0  0
   15.2059   11.4143   13.0047 N   0  0  0  0  0  0  0  0  0  0  0  0
   15.9288   10.9896   14.1804 C   0  0  0  0  0  0  0  0  0  0  0  0
   15.6069    9.5560   14.5513 C   0  0  0  0  0  0  0  0  0  0  0  0
   15.9314    8.6608   13.4521 N   0  0  0  0  0  0  0  0  0  0  0  0
   15.4263    9.1039   12.2074 C   0  0  0  0  0  0  0  0  0  0  0  0
   15.4037    8.1858   11.1550 C   0  0  0  0  0  0  0  0  0  0  0  0
   15.0084    8.5680    9.8810 C   0  0  0  0  0  0  0  0  0  0  0  0
   14.6744    9.8822    9.6260 C   0  0  0  0  0  0  0  0  0  0  0  0
   14.7003   10.8156   10.6593 C   0  0  0  0  0  0  0  0  0  0  0  0
   15.0809   10.4495   11.9548 C   0  0  0  0  0  0  0  0  0  0  0  0
   16.7044   13.9673   12.1871 C   0  0  0  0  0  0  0  0  0  0  0  0
   17.7956   14.9188   12.5539 C   0  0  0  0  0  0  0  0  0  0  0  0
   17.9373   14.6178   14.0136 C   0  0  0  0  0  0  0  0  0  0  0  0
   16.9371   13.6070   14.3423 O   0  0  0  0  0  0  0  0  0  0  0  0
  1  2  1  0
  3  2  1  1
  3  4  1  0
  4  5  2  0
  4  6  1  0
  6  7  1  0
  7  8  1  0
  8  9  1  0
  9 10  1  0
 10 11  2  0
 11 12  1  0
 12 13  2  0
 13 14  1  0
 14 15  2  0
  3 16  1  0
 16 17  1  0
 17 18  1  0
 18 19  1  0
 19  3  1  0
 15  6  1  0
 15 10  1  0
M  END
>  <ref_pdb>  (472) 
c0270a

>  <inchikey>  (472) 
GQCSBFHMMIBQLP-CQSZACIVSA-N

>  <original ID>  (472) 
GQCSBFHMMIBQLP-CQSZACIVSA-N

>  <generation_date>  (472) 
None

>  <alias>  (472) 
None

>  <tags>  (472) 
[]

>  <ref_mols>  (472) 
c0692a,c1116a

>  <ref_url>  (472) 
None

>  <submitter_name>  (472) 
None

>  <exports>  (472) 
nan

>  <original SMILES>  (472) 
NC[C@@]1(C(=O)N2CCNc3ccccc32)CCCO1

>  <method>  (472) 
None

>  <submitter_email>  (472) 
None

>  <HIPPO ID>  (472) 
114520

$$$$
ISVISXCVGMLNAU-CYBMUJFWSA-N
     RDKit          3D

 19 20  0  0  0  0  0  0  0  0999 V2000
   14.8256    9.8731    8.5716 C   0  0  0  0  0  0  0  0  0  0  0  0
   16.1174    9.3117    8.9336 N   0  0  0  0  0  0  0  0  0  0  0  0
   16.1032    9.2394   10.3415 C   0  0  0  0  0  0  0  0  0  0  0  0
   15.2518    8.2644   10.8927 C   0  0  0  0  0  0  0  0  0  0  0  0
   14.7913    8.4109   12.1832 C   0  0  0  0  0  0  0  0  0  0  0  0
   15.1478    9.5581   12.8758 C   0  0  0  0  0  0  0  0  0  0  0  0
   14.3650    9.9903   14.5067 Br  0  0  0  0  0  0  0  0  0  0  0  0
   16.0717   10.4676   12.3847 C   0  0  0  0  0  0  0  0  0  0  0  0
   16.6043   10.2972   11.1223 C   0  0  0  0  0  0  0  0  0  0  0  0
   17.6763   11.0968   10.6531 N   0  0  0  0  0  0  0  0  0  0  0  0
   18.1549   12.2313   11.2921 C   0  0  0  0  0  0  0  0  0  0  0  0
   17.4160   12.9441   11.9805 O   0  0  0  0  0  0  0  0  0  0  0  0
   19.6740   12.6141   11.0993 C   0  0  2  0  0  0  0  0  0  0  0  0
   20.5361   11.3842   10.7234 C   0  0  0  0  0  0  0  0  0  0  0  0
   21.9550   11.6787   10.5130 N   0  0  0  0  0  0  0  0  0  0  0  0
   20.1716   13.2631   12.4041 C   0  0  0  0  0  0  0  0  0  0  0  0
   20.0586   14.7415   12.1488 C   0  0  0  0  0  0  0  0  0  0  0  0
   20.4180   14.8050   10.6924 C   0  0  0  0  0  0  0  0  0  0  0  0
   19.8388   13.6374   10.0904 O   0  0  0  0  0  0  0  0  0  0  0  0
  1  2  1  0
  2  3  1  0
  3  4  2  0
  4  5  1  0
  5  6  2  0
  6  7  1  0
  6  8  1  0
  8  9  2  0
  9 10  1  0
 10 11  1  0
 11 12  2  0
 11 13  1  0
 13 14  1  6
 14 15  1  0
 13 16  1  0
 16 17  1  0
 17 18  1  0
 18 19  1  0
  9  3  1  0
 19 13  1  0
M  END
>  <ref_pdb>  (473) 
c0270a

>  <inchikey>  (473) 
ISVISXCVGMLNAU-CYBMUJFWSA-N

>  <original ID>  (473) 
ISVISXCVGMLNAU-CYBMUJFWSA-N

>  <generation_date>  (473) 
None

>  <alias>  (473) 
None

>  <tags>  (473) 
[]

>  <ref_mols>  (473) 
c0692a,c1116a

>  <ref_url>  (473) 
None

>  <submitter_name>  (473) 
None

>  <exports>  (473) 
['/opt/xchem-fragalysis-2/maxwin/CHIKV_HIPPO/hippo_prod/CHIKV_prod11_recipes/Recipe_1GERJCJ_poses.sdf']

>  <original SMILES>  (473) 
CNc1ccc(Br)cc1NC(=O)[C@]1(CN)CCCO1

>  <method>  (473) 
None

>  <submitter_email>  (473) 
None

>  <HIPPO ID>  (473) 
114534

$$$$
ISVISXCVGMLNAU-ZDUSSCGKSA-N
     RDKit          3D

 19 20  0  0  0  0  0  0  0  0999 V2000
   15.6194    8.9592    8.6137 C   0  0  0  0  0  0  0  0  0  0  0  0
   15.6596   10.2211    9.2675 N   0  0  0  0  0  0  0  0  0  0  0  0
   15.6997   10.0601   10.6496 C   0  0  0  0  0  0  0  0  0  0  0  0
   14.8719    9.1149   11.2746 C   0  0  0  0  0  0  0  0  0  0  0  0
   14.7355    9.1038   12.6434 C   0  0  0  0  0  0  0  0  0  0  0  0
   15.2911   10.1480   13.3484 C   0  0  0  0  0  0  0  0  0  0  0  0
   14.8784   10.4004   15.1332 Br  0  0  0  0  0  0  0  0  0  0  0  0
   16.1603   11.0511   12.7696 C   0  0  0  0  0  0  0  0  0  0  0  0
   16.4443   10.9426   11.4268 C   0  0  0  0  0  0  0  0  0  0  0  0
   17.5734   11.5726   10.8679 N   0  0  0  0  0  0  0  0  0  0  0  0
   18.2298   12.6314   11.4620 C   0  0  0  0  0  0  0  0  0  0  0  0
   17.6069   13.4768   12.1109 O   0  0  0  0  0  0  0  0  0  0  0  0
   19.7847   12.6982   11.3237 C   0  0  1  0  0  0  0  0  0  0  0  0
   20.3531   11.3989   10.7283 C   0  0  0  0  0  0  0  0  0  0  0  0
   21.8005   11.2687   10.7094 N   0  0  0  0  0  0  0  0  0  0  0  0
   20.2986   13.9833   10.6853 C   0  0  0  0  0  0  0  0  0  0  0  0
   20.3939   14.9523   11.8366 C   0  0  0  0  0  0  0  0  0  0  0  0
   20.8094   14.0554   12.9693 C   0  0  0  0  0  0  0  0  0  0  0  0
   20.2731   12.7644   12.6867 O   0  0  0  0  0  0  0  0  0  0  0  0
  1  2  1  0
  2  3  1  0
  3  4  2  0
  4  5  1  0
  5  6  2  0
  6  7  1  0
  6  8  1  0
  8  9  2  0
  9 10  1  0
 10 11  1  0
 11 12  2  0
 11 13  1  0
 13 14  1  6
 14 15  1  0
 13 16  1  0
 16 17  1  0
 17 18  1  0
 18 19  1  0
  9  3  1  0
 19 13  1  0
M  END
>  <ref_pdb>  (474) 
c0270a

>  <inchikey>  (474) 
ISVISXCVGMLNAU-ZDUSSCGKSA-N

>  <original ID>  (474) 
ISVISXCVGMLNAU-ZDUSSCGKSA-N

>  <generation_date>  (474) 
None

>  <alias>  (474) 
None

>  <tags>  (474) 
[]

>  <ref_mols>  (474) 
c0692a,c1116a

>  <ref_url>  (474) 
None

>  <submitter_name>  (474) 
None

>  <exports>  (474) 
['/opt/xchem-fragalysis-2/maxwin/CHIKV_HIPPO/hippo_prod/CHIKV_prod11_recipes/Recipe_1GERJCJ_poses.sdf']

>  <original SMILES>  (474) 
CNc1ccc(Br)cc1NC(=O)[C@@]1(CN)CCCO1

>  <method>  (474) 
None

>  <submitter_email>  (474) 
None

>  <HIPPO ID>  (474) 
114535

$$$$
YFWNUFJXIPRXFF-SECBINFHSA-N
     RDKit          3D

 19 20  0  0  0  0  0  0  0  0999 V2000
   16.2372    9.4572    8.5177 N   0  0  0  0  0  0  0  0  0  0  0  0
   15.7979    9.3778    9.8297 C   0  0  0  0  0  0  0  0  0  0  0  0
   14.9395    8.3304   10.1496 C   0  0  0  0  0  0  0  0  0  0  0  0
   14.5454    8.1258   11.4606 C   0  0  0  0  0  0  0  0  0  0  0  0
   13.5550    6.7400   11.7524 Cl  0  0  0  0  0  0  0  0  0  0  0  0
   14.9548    9.0384   12.4363 C   0  0  0  0  0  0  0  0  0  0  0  0
   14.4099    9.0299   14.4176 I   0  0  0  0  0  0  0  0  0  0  0  0
   15.8339   10.0703   12.1191 C   0  0  0  0  0  0  0  0  0  0  0  0
   16.3363   10.1839   10.8371 C   0  0  0  0  0  0  0  0  0  0  0  0
   17.4645   10.9865   10.5703 N   0  0  0  0  0  0  0  0  0  0  0  0
   17.9183   12.0287   11.3671 C   0  0  0  0  0  0  0  0  0  0  0  0
   17.1839   12.6040   12.1682 O   0  0  0  0  0  0  0  0  0  0  0  0
   19.3886   12.4393   11.1232 C   0  0  2  0  0  0  0  0  0  0  0  0
   20.1085   11.3160   10.6043 O   0  0  0  0  0  0  0  0  0  0  0  0
   21.5195   11.5773   10.5441 C   0  0  0  0  0  0  0  0  0  0  0  0
   22.0586   11.8376   11.9417 C   0  0  0  0  0  0  0  0  0  0  0  0
   21.3410   12.9151   12.5853 N   0  0  0  0  0  0  0  0  0  0  0  0
   20.0060   13.1462   12.3539 C   0  0  0  0  0  0  0  0  0  0  0  0
   19.3978   13.9451   13.0601 O   0  0  0  0  0  0  0  0  0  0  0  0
  1  2  1  0
  2  3  2  0
  3  4  1  0
  4  5  1  0
  4  6  2  0
  6  7  1  0
  6  8  1  0
  8  9  2  0
  9 10  1  0
 10 11  1  0
 11 12  2  0
 13 11  1  1
 13 14  1  0
 14 15  1  0
 15 16  1  0
 16 17  1  0
 17 18  1  0
 18 19  2  0
  9  2  1  0
 18 13  1  0
M  END
>  <ref_pdb>  (475) 
c0270a

>  <inchikey>  (475) 
YFWNUFJXIPRXFF-SECBINFHSA-N

>  <original ID>  (475) 
YFWNUFJXIPRXFF-SECBINFHSA-N

>  <generation_date>  (475) 
None

>  <alias>  (475) 
None

>  <tags>  (475) 
[]

>  <ref_mols>  (475) 
c0692a,c1116a

>  <ref_url>  (475) 
None

>  <submitter_name>  (475) 
None

>  <exports>  (475) 
nan

>  <original SMILES>  (475) 
Nc1cc(Cl)c(I)cc1NC(=O)[C@@H]1OCCNC1=O

>  <method>  (475) 
None

>  <submitter_email>  (475) 
None

>  <HIPPO ID>  (475) 
114607

$$$$
YFWNUFJXIPRXFF-VIFPVBQESA-N
     RDKit          3D

 19 20  0  0  0  0  0  0  0  0999 V2000
   16.3053    9.4650    8.5281 N   0  0  0  0  0  0  0  0  0  0  0  0
   15.8812    9.4465    9.8481 C   0  0  0  0  0  0  0  0  0  0  0  0
   15.0198    8.4124   10.2019 C   0  0  0  0  0  0  0  0  0  0  0  0
   14.6224    8.2597   11.5154 C   0  0  0  0  0  0  0  0  0  0  0  0
   13.6652    6.8617   11.8595 Cl  0  0  0  0  0  0  0  0  0  0  0  0
   15.0158    9.2224   12.4496 C   0  0  0  0  0  0  0  0  0  0  0  0
   14.4572    9.2838   14.4229 I   0  0  0  0  0  0  0  0  0  0  0  0
   15.8973   10.2461   12.0981 C   0  0  0  0  0  0  0  0  0  0  0  0
   16.4239   10.2964   10.8228 C   0  0  0  0  0  0  0  0  0  0  0  0
   17.5863   11.0551   10.5455 N   0  0  0  0  0  0  0  0  0  0  0  0
   18.1071   12.0850   11.3238 C   0  0  0  0  0  0  0  0  0  0  0  0
   17.4247   12.7387   12.1129 O   0  0  0  0  0  0  0  0  0  0  0  0
   19.6356   12.2882   11.2090 C   0  0  1  0  0  0  0  0  0  0  0  0
   20.2507   11.2464   10.4498 O   0  0  0  0  0  0  0  0  0  0  0  0
   21.6766   11.3126   10.6171 C   0  0  0  0  0  0  0  0  0  0  0  0
   22.2427   12.6145   10.0538 C   0  0  0  0  0  0  0  0  0  0  0  0
   21.3846   13.7634   10.2888 N   0  0  0  0  0  0  0  0  0  0  0  0
   20.1206   13.6885   10.8247 C   0  0  0  0  0  0  0  0  0  0  0  0
   19.5053   14.7287   11.0193 O   0  0  0  0  0  0  0  0  0  0  0  0
  1  2  1  0
  2  3  2  0
  3  4  1  0
  4  5  1  0
  4  6  2  0
  6  7  1  0
  6  8  1  0
  8  9  2  0
  9 10  1  0
 10 11  1  0
 11 12  2  0
 13 11  1  6
 13 14  1  0
 14 15  1  0
 15 16  1  0
 16 17  1  0
 17 18  1  0
 18 19  2  0
  9  2  1  0
 18 13  1  0
M  END
>  <ref_pdb>  (476) 
c0270a

>  <inchikey>  (476) 
YFWNUFJXIPRXFF-VIFPVBQESA-N

>  <original ID>  (476) 
YFWNUFJXIPRXFF-VIFPVBQESA-N

>  <generation_date>  (476) 
None

>  <alias>  (476) 
None

>  <tags>  (476) 
[]

>  <ref_mols>  (476) 
c0692a,c1116a

>  <ref_url>  (476) 
None

>  <submitter_name>  (476) 
None

>  <exports>  (476) 
nan

>  <original SMILES>  (476) 
Nc1cc(Cl)c(I)cc1NC(=O)[C@H]1OCCNC1=O

>  <method>  (476) 
None

>  <submitter_email>  (476) 
None

>  <HIPPO ID>  (476) 
114608

$$$$
KQTVWCDRNOQVNC-SECBINFHSA-N
     RDKit          3D

 19 20  0  0  0  0  0  0  0  0999 V2000
   16.2628    9.4474    8.5445 N   0  0  0  0  0  0  0  0  0  0  0  0
   15.8002    9.3622    9.8495 C   0  0  0  0  0  0  0  0  0  0  0  0
   14.9637    8.2908   10.1527 C   0  0  0  0  0  0  0  0  0  0  0  0
   14.5450    8.0759   11.4555 C   0  0  0  0  0  0  0  0  0  0  0  0
   13.4353    6.3196   11.7774 I   0  0  0  0  0  0  0  0  0  0  0  0
   14.8927    9.0153   12.4307 C   0  0  0  0  0  0  0  0  0  0  0  0
   14.3236    9.0204   14.0437 Cl  0  0  0  0  0  0  0  0  0  0  0  0
   15.7606   10.0627   12.1360 C   0  0  0  0  0  0  0  0  0  0  0  0
   16.2995   10.1820   10.8681 C   0  0  0  0  0  0  0  0  0  0  0  0
   17.4158   11.0072   10.6102 N   0  0  0  0  0  0  0  0  0  0  0  0
   17.9005   12.0087   11.4416 C   0  0  0  0  0  0  0  0  0  0  0  0
   17.2135   12.5252   12.3198 O   0  0  0  0  0  0  0  0  0  0  0  0
   19.3557   12.4409   11.1456 C   0  0  2  0  0  0  0  0  0  0  0  0
   20.0737   11.3115   10.6360 O   0  0  0  0  0  0  0  0  0  0  0  0
   21.4851   11.5656   10.5695 C   0  0  0  0  0  0  0  0  0  0  0  0
   22.0282   11.8500   11.9609 C   0  0  0  0  0  0  0  0  0  0  0  0
   21.3227   12.9504   12.5776 N   0  0  0  0  0  0  0  0  0  0  0  0
   19.9942   13.2021   12.3337 C   0  0  0  0  0  0  0  0  0  0  0  0
   19.4091   14.0607   12.9883 O   0  0  0  0  0  0  0  0  0  0  0  0
  1  2  1  0
  2  3  2  0
  3  4  1  0
  4  5  1  0
  4  6  2  0
  6  7  1  0
  6  8  1  0
  8  9  2  0
  9 10  1  0
 10 11  1  0
 11 12  2  0
 13 11  1  1
 13 14  1  0
 14 15  1  0
 15 16  1  0
 16 17  1  0
 17 18  1  0
 18 19  2  0
  9  2  1  0
 18 13  1  0
M  END
>  <ref_pdb>  (477) 
c0270a

>  <inchikey>  (477) 
KQTVWCDRNOQVNC-SECBINFHSA-N

>  <original ID>  (477) 
KQTVWCDRNOQVNC-SECBINFHSA-N

>  <generation_date>  (477) 
None

>  <alias>  (477) 
None

>  <tags>  (477) 
[]

>  <ref_mols>  (477) 
c0692a,c1116a

>  <ref_url>  (477) 
None

>  <submitter_name>  (477) 
None

>  <exports>  (477) 
nan

>  <original SMILES>  (477) 
Nc1cc(I)c(Cl)cc1NC(=O)[C@@H]1OCCNC1=O

>  <method>  (477) 
None

>  <submitter_email>  (477) 
None

>  <HIPPO ID>  (477) 
114609

$$$$
KQTVWCDRNOQVNC-VIFPVBQESA-N
     RDKit          3D

 19 20  0  0  0  0  0  0  0  0999 V2000
   16.3113    9.4663    8.5515 N   0  0  0  0  0  0  0  0  0  0  0  0
   15.8769    9.4367    9.8685 C   0  0  0  0  0  0  0  0  0  0  0  0
   15.0410    8.3788   10.2154 C   0  0  0  0  0  0  0  0  0  0  0  0
   14.6215    8.2252   11.5240 C   0  0  0  0  0  0  0  0  0  0  0  0
   13.5598    6.4527   11.9254 I   0  0  0  0  0  0  0  0  0  0  0  0
   14.9496    9.2234   12.4484 C   0  0  0  0  0  0  0  0  0  0  0  0
   14.3474    9.3148   14.0463 Cl  0  0  0  0  0  0  0  0  0  0  0  0
   15.8288   10.2538   12.1124 C   0  0  0  0  0  0  0  0  0  0  0  0
   16.3904   10.2976   10.8501 C   0  0  0  0  0  0  0  0  0  0  0  0
   17.5490   11.0660   10.5782 N   0  0  0  0  0  0  0  0  0  0  0  0
   18.0745   12.0859   11.3651 C   0  0  0  0  0  0  0  0  0  0  0  0
   17.4004   12.7231   12.1739 O   0  0  0  0  0  0  0  0  0  0  0  0
   19.6016   12.2980   11.2304 C   0  0  1  0  0  0  0  0  0  0  0  0
   20.2108   11.2719   10.4446 O   0  0  0  0  0  0  0  0  0  0  0  0
   21.6386   11.3384   10.5964 C   0  0  0  0  0  0  0  0  0  0  0  0
   22.1985   12.6566   10.0629 C   0  0  0  0  0  0  0  0  0  0  0  0
   21.3191   13.7925   10.2850 N   0  0  0  0  0  0  0  0  0  0  0  0
   20.0747   13.7059   10.8633 C   0  0  0  0  0  0  0  0  0  0  0  0
   19.4666   14.7408   11.1040 O   0  0  0  0  0  0  0  0  0  0  0  0
  1  2  1  0
  2  3  2  0
  3  4  1  0
  4  5  1  0
  4  6  2  0
  6  7  1  0
  6  8  1  0
  8  9  2  0
  9 10  1  0
 10 11  1  0
 11 12  2  0
 13 11  1  6
 13 14  1  0
 14 15  1  0
 15 16  1  0
 16 17  1  0
 17 18  1  0
 18 19  2  0
  9  2  1  0
 18 13  1  0
M  END
>  <ref_pdb>  (478) 
c0270a

>  <inchikey>  (478) 
KQTVWCDRNOQVNC-VIFPVBQESA-N

>  <original ID>  (478) 
KQTVWCDRNOQVNC-VIFPVBQESA-N

>  <generation_date>  (478) 
None

>  <alias>  (478) 
None

>  <tags>  (478) 
[]

>  <ref_mols>  (478) 
c0692a,c1116a

>  <ref_url>  (478) 
None

>  <submitter_name>  (478) 
None

>  <exports>  (478) 
nan

>  <original SMILES>  (478) 
Nc1cc(I)c(Cl)cc1NC(=O)[C@H]1OCCNC1=O

>  <method>  (478) 
None

>  <submitter_email>  (478) 
None

>  <HIPPO ID>  (478) 
114610

$$$$
VKUBBZOKBQELRV-SNVBAGLBSA-N
     RDKit          3D

 19 20  0  0  0  0  0  0  0  0999 V2000
   13.6498    6.8972   11.7377 C   0  0  0  0  0  0  0  0  0  0  0  0
   14.4847    8.1171   11.4744 C   0  0  0  0  0  0  0  0  0  0  0  0
   14.9192    8.3262   10.1700 C   0  0  0  0  0  0  0  0  0  0  0  0
   15.7604    9.3909    9.8568 C   0  0  0  0  0  0  0  0  0  0  0  0
   16.2142    9.4701    8.5481 N   0  0  0  0  0  0  0  0  0  0  0  0
   16.2775   10.2028   10.8731 C   0  0  0  0  0  0  0  0  0  0  0  0
   17.3914   11.0218   10.5954 N   0  0  0  0  0  0  0  0  0  0  0  0
   17.9584   11.9624   11.4487 C   0  0  0  0  0  0  0  0  0  0  0  0
   17.3884   12.4183   12.4367 O   0  0  0  0  0  0  0  0  0  0  0  0
   19.3875   12.3595   11.0534 C   0  0  2  0  0  0  0  0  0  0  0  0
   20.1721   11.1691   10.9846 O   0  0  0  0  0  0  0  0  0  0  0  0
   21.5665   11.4623   10.8380 C   0  0  0  0  0  0  0  0  0  0  0  0
   22.0435   12.3145   12.0084 C   0  0  0  0  0  0  0  0  0  0  0  0
   21.2776   13.5373   12.1159 N   0  0  0  0  0  0  0  0  0  0  0  0
   19.9305   13.5660   11.8435 C   0  0  0  0  0  0  0  0  0  0  0  0
   19.2681   14.5679   12.0994 O   0  0  0  0  0  0  0  0  0  0  0  0
   15.7555   10.0859   12.1452 C   0  0  0  0  0  0  0  0  0  0  0  0
   14.8759    9.0528   12.4418 C   0  0  0  0  0  0  0  0  0  0  0  0
   14.3182    9.0530   14.0588 Cl  0  0  0  0  0  0  0  0  0  0  0  0
  1  2  1  0
  2  3  2  0
  3  4  1  0
  4  5  1  0
  4  6  2  0
  6  7  1  0
  7  8  1  0
  8  9  2  0
 10  8  1  1
 10 11  1  0
 11 12  1  0
 12 13  1  0
 13 14  1  0
 14 15  1  0
 15 16  2  0
  6 17  1  0
 17 18  2  0
 18 19  1  0
 18  2  1  0
 15 10  1  0
M  END
>  <ref_pdb>  (479) 
c0270a

>  <inchikey>  (479) 
VKUBBZOKBQELRV-SNVBAGLBSA-N

>  <original ID>  (479) 
VKUBBZOKBQELRV-SNVBAGLBSA-N

>  <generation_date>  (479) 
None

>  <alias>  (479) 
None

>  <tags>  (479) 
[]

>  <ref_mols>  (479) 
c0692a,c1116a

>  <ref_url>  (479) 
None

>  <submitter_name>  (479) 
None

>  <exports>  (479) 
nan

>  <original SMILES>  (479) 
Cc1cc(N)c(NC(=O)[C@@H]2OCCNC2=O)cc1Cl

>  <method>  (479) 
None

>  <submitter_email>  (479) 
None

>  <HIPPO ID>  (479) 
114619

$$$$
JIFUZQUWFSDADN-SNVBAGLBSA-N
     RDKit          3D

 19 20  0  0  0  0  0  0  0  0999 V2000
   14.3768    9.1243   13.8439 C   0  0  0  0  0  0  0  0  0  0  0  0
   14.8861    9.0819   12.4451 C   0  0  0  0  0  0  0  0  0  0  0  0
   15.7833   10.1043   12.1244 C   0  0  0  0  0  0  0  0  0  0  0  0
   16.3262   10.1969   10.8553 C   0  0  0  0  0  0  0  0  0  0  0  0
   17.4531   11.0037   10.5961 N   0  0  0  0  0  0  0  0  0  0  0  0
   17.9172   12.0329   11.4028 C   0  0  0  0  0  0  0  0  0  0  0  0
   17.2037   12.5933   12.2322 O   0  0  0  0  0  0  0  0  0  0  0  0
   19.3830   12.4481   11.1376 C   0  0  2  0  0  0  0  0  0  0  0  0
   20.0986   11.3271   10.6064 O   0  0  0  0  0  0  0  0  0  0  0  0
   21.5097   11.5840   10.5409 C   0  0  0  0  0  0  0  0  0  0  0  0
   22.0565   11.8346   11.9370 C   0  0  0  0  0  0  0  0  0  0  0  0
   21.3498   12.9159   12.5854 N   0  0  0  0  0  0  0  0  0  0  0  0
   20.0155   13.1572   12.3604 C   0  0  0  0  0  0  0  0  0  0  0  0
   19.4207   13.9671   13.0656 O   0  0  0  0  0  0  0  0  0  0  0  0
   15.8189    9.3704    9.8476 C   0  0  0  0  0  0  0  0  0  0  0  0
   16.2781    9.4384    8.5390 N   0  0  0  0  0  0  0  0  0  0  0  0
   14.9662    8.3197   10.1657 C   0  0  0  0  0  0  0  0  0  0  0  0
   14.5337    8.1422   11.4677 C   0  0  0  0  0  0  0  0  0  0  0  0
   13.5507    6.7535   11.7684 Cl  0  0  0  0  0  0  0  0  0  0  0  0
  1  2  1  0
  2  3  2  0
  3  4  1  0
  4  5  1  0
  5  6  1  0
  6  7  2  0
  8  6  1  1
  8  9  1  0
  9 10  1  0
 10 11  1  0
 11 12  1  0
 12 13  1  0
 13 14  2  0
  4 15  2  0
 15 16  1  0
 15 17  1  0
 17 18  2  0
 18 19  1  0
 18  2  1  0
 13  8  1  0
M  END
>  <ref_pdb>  (480) 
c0270a

>  <inchikey>  (480) 
JIFUZQUWFSDADN-SNVBAGLBSA-N

>  <original ID>  (480) 
JIFUZQUWFSDADN-SNVBAGLBSA-N

>  <generation_date>  (480) 
None

>  <alias>  (480) 
None

>  <tags>  (480) 
[]

>  <ref_mols>  (480) 
c0692a,c1116a

>  <ref_url>  (480) 
None

>  <submitter_name>  (480) 
None

>  <exports>  (480) 
nan

>  <original SMILES>  (480) 
Cc1cc(NC(=O)[C@@H]2OCCNC2=O)c(N)cc1Cl

>  <method>  (480) 
None

>  <submitter_email>  (480) 
None

>  <HIPPO ID>  (480) 
114620

$$$$
JIFUZQUWFSDADN-JTQLQIEISA-N
     RDKit          3D

 19 20  0  0  0  0  0  0  0  0999 V2000
   14.3493    9.6103   13.9774 C   0  0  0  0  0  0  0  0  0  0  0  0
   14.9096    9.4231   12.6114 C   0  0  0  0  0  0  0  0  0  0  0  0
   15.8098   10.4186   12.2053 C   0  0  0  0  0  0  0  0  0  0  0  0
   16.3997   10.3631   10.9566 C   0  0  0  0  0  0  0  0  0  0  0  0
   17.5710   11.0945   10.6483 N   0  0  0  0  0  0  0  0  0  0  0  0
   18.0990   12.1546   11.3735 C   0  0  0  0  0  0  0  0  0  0  0  0
   17.4217   12.8566   12.1248 O   0  0  0  0  0  0  0  0  0  0  0  0
   19.6295   12.3340   11.2486 C   0  0  1  0  0  0  0  0  0  0  0  0
   20.2244   11.2838   10.4851 O   0  0  0  0  0  0  0  0  0  0  0  0
   21.6521   11.3315   10.6317 C   0  0  0  0  0  0  0  0  0  0  0  0
   22.2273   12.6275   10.0632 C   0  0  0  0  0  0  0  0  0  0  0  0
   21.3814   13.7861   10.2972 N   0  0  0  0  0  0  0  0  0  0  0  0
   20.1248   13.7281   10.8525 C   0  0  0  0  0  0  0  0  0  0  0  0
   19.5241   14.7763   11.0541 O   0  0  0  0  0  0  0  0  0  0  0  0
   15.9073    9.4347   10.0332 C   0  0  0  0  0  0  0  0  0  0  0  0
   16.4076    9.3485    8.7533 N   0  0  0  0  0  0  0  0  0  0  0  0
   15.0596    8.4102   10.4430 C   0  0  0  0  0  0  0  0  0  0  0  0
   14.6134    8.3613   11.7465 C   0  0  0  0  0  0  0  0  0  0  0  0
   13.6985    6.9588   12.1771 Cl  0  0  0  0  0  0  0  0  0  0  0  0
  1  2  1  0
  2  3  2  0
  3  4  1  0
  4  5  1  0
  5  6  1  0
  6  7  2  0
  8  6  1  6
  8  9  1  0
  9 10  1  0
 10 11  1  0
 11 12  1  0
 12 13  1  0
 13 14  2  0
  4 15  2  0
 15 16  1  0
 15 17  1  0
 17 18  2  0
 18 19  1  0
 18  2  1  0
 13  8  1  0
M  END
>  <ref_pdb>  (481) 
c0270a

>  <inchikey>  (481) 
JIFUZQUWFSDADN-JTQLQIEISA-N

>  <original ID>  (481) 
JIFUZQUWFSDADN-JTQLQIEISA-N

>  <generation_date>  (481) 
None

>  <alias>  (481) 
None

>  <tags>  (481) 
[]

>  <ref_mols>  (481) 
c0692a,c1116a

>  <ref_url>  (481) 
None

>  <submitter_name>  (481) 
None

>  <exports>  (481) 
nan

>  <original SMILES>  (481) 
Cc1cc(NC(=O)[C@H]2OCCNC2=O)c(N)cc1Cl

>  <method>  (481) 
None

>  <submitter_email>  (481) 
None

>  <HIPPO ID>  (481) 
114621

$$$$
ISXRYDYUNSRGRT-NSHDSACASA-N
     RDKit          3D

 19 21  0  0  0  0  0  0  0  0999 V2000
   14.1031   12.4109    9.8511 O   0  0  0  0  0  0  0  0  0  0  0  0
   14.9912   11.5684    9.9246 C   0  0  0  0  0  0  0  0  0  0  0  0
   15.3963   10.8042    8.8625 N   0  0  0  0  0  0  0  0  0  0  0  0
   16.3674    9.7510    9.0602 C   0  0  0  0  0  0  0  0  0  0  0  0
   17.3942   10.0878   10.1472 C   0  0  0  0  0  0  0  0  0  0  0  0
   17.0839   11.1807   11.0148 O   0  0  0  0  0  0  0  0  0  0  0  0
   15.6984   11.3519   11.1940 C   0  0  2  0  0  0  0  0  0  0  0  0
   14.8507   10.2155   11.6839 C   0  0  0  0  0  0  0  0  0  0  0  0
   14.5920    9.2749   10.9234 O   0  0  0  0  0  0  0  0  0  0  0  0
   14.4118   10.2153   12.9799 N   0  0  0  0  0  0  0  0  0  0  0  0
   14.5068   11.4094   13.8223 C   0  0  0  0  0  0  0  0  0  0  0  0
   15.8866   11.5194   14.4501 C   0  0  0  0  0  0  0  0  0  0  0  0
   16.1670   10.2808   15.1730 N   0  0  0  0  0  0  0  0  0  0  0  0
   15.8565    9.0847   14.5115 C   0  0  0  0  0  0  0  0  0  0  0  0
   16.5522    7.9156   14.7812 C   0  0  0  0  0  0  0  0  0  0  0  0
   16.2910    6.7214   14.0874 C   0  0  0  0  0  0  0  0  0  0  0  0
   15.2552    6.6300   13.1793 C   0  0  0  0  0  0  0  0  0  0  0  0
   14.4938    7.7532   12.9644 C   0  0  0  0  0  0  0  0  0  0  0  0
   14.8286    8.9893   13.5733 C   0  0  0  0  0  0  0  0  0  0  0  0
  1  2  2  0
  2  3  1  0
  3  4  1  0
  4  5  1  0
  5  6  1  0
  6  7  1  0
  7  8  1  6
  8  9  2  0
  8 10  1  0
 10 11  1  0
 11 12  1  0
 12 13  1  0
 13 14  1  0
 14 15  2  0
 15 16  1  0
 16 17  2  0
 17 18  1  0
 18 19  2  0
  7  2  1  0
 19 10  1  0
 19 14  1  0
M  END
>  <ref_pdb>  (482) 
c0270a

>  <inchikey>  (482) 
ISXRYDYUNSRGRT-NSHDSACASA-N

>  <original ID>  (482) 
ISXRYDYUNSRGRT-NSHDSACASA-N

>  <generation_date>  (482) 
None

>  <alias>  (482) 
None

>  <tags>  (482) 
[]

>  <ref_mols>  (482) 
c0692a,c1116a

>  <ref_url>  (482) 
None

>  <submitter_name>  (482) 
None

>  <exports>  (482) 
nan

>  <original SMILES>  (482) 
O=C1NCCO[C@@H]1C(=O)N1CCNc2ccccc21

>  <method>  (482) 
None

>  <submitter_email>  (482) 
None

>  <HIPPO ID>  (482) 
114634

$$$$
ISXRYDYUNSRGRT-LLVKDONJSA-N
     RDKit          3D

 19 21  0  0  0  0  0  0  0  0999 V2000
   13.9111   12.6688    9.5395 O   0  0  0  0  0  0  0  0  0  0  0  0
   13.3970   13.5524   10.1900 C   0  0  0  0  0  0  0  0  0  0  0  0
   12.3484   14.4369    9.7548 N   0  0  0  0  0  0  0  0  0  0  0  0
   11.0916   13.9450   10.1088 C   0  0  0  0  0  0  0  0  0  0  0  0
   11.4811   12.8401   10.9929 C   0  0  0  0  0  0  0  0  0  0  0  0
   12.4591   13.1095   12.0913 O   0  0  0  0  0  0  0  0  0  0  0  0
   13.7072   13.5097   11.6228 C   0  0  1  0  0  0  0  0  0  0  0  0
   15.0530   12.8267   11.9228 C   0  0  0  0  0  0  0  0  0  0  0  0
   16.0970   13.4893   11.8470 O   0  0  0  0  0  0  0  0  0  0  0  0
   15.0495   11.5811   12.5220 N   0  0  0  0  0  0  0  0  0  0  0  0
   15.8229   11.5448   13.7529 C   0  0  0  0  0  0  0  0  0  0  0  0
   15.4445   10.3443   14.5976 C   0  0  0  0  0  0  0  0  0  0  0  0
   15.6627    9.1014   13.8720 N   0  0  0  0  0  0  0  0  0  0  0  0
   15.2600    9.1314   12.5190 C   0  0  0  0  0  0  0  0  0  0  0  0
   15.1797    7.9093   11.8352 C   0  0  0  0  0  0  0  0  0  0  0  0
   14.9333    7.8571   10.4671 C   0  0  0  0  0  0  0  0  0  0  0  0
   14.9160    9.0271    9.7418 C   0  0  0  0  0  0  0  0  0  0  0  0
   15.0514   10.2415   10.4084 C   0  0  0  0  0  0  0  0  0  0  0  0
   15.1107   10.3337   11.7977 C   0  0  0  0  0  0  0  0  0  0  0  0
  1  2  2  0
  2  3  1  0
  3  4  1  0
  4  5  1  0
  5  6  1  0
  6  7  1  0
  7  8  1  6
  8  9  2  0
  8 10  1  0
 10 11  1  0
 11 12  1  0
 12 13  1  0
 13 14  1  0
 14 15  2  0
 15 16  1  0
 16 17  2  0
 17 18  1  0
 18 19  2  0
  7  2  1  0
 19 10  1  0
 19 14  1  0
M  END
>  <ref_pdb>  (483) 
c0270a

>  <inchikey>  (483) 
ISXRYDYUNSRGRT-LLVKDONJSA-N

>  <original ID>  (483) 
ISXRYDYUNSRGRT-LLVKDONJSA-N

>  <generation_date>  (483) 
None

>  <alias>  (483) 
None

>  <tags>  (483) 
[]

>  <ref_mols>  (483) 
c0692a,c1116a

>  <ref_url>  (483) 
None

>  <submitter_name>  (483) 
None

>  <exports>  (483) 
nan

>  <original SMILES>  (483) 
O=C1NCCO[C@H]1C(=O)N1CCNc2ccccc21

>  <method>  (483) 
None

>  <submitter_email>  (483) 
None

>  <HIPPO ID>  (483) 
114635

$$$$
DRQUGPGTCFEMKO-SNVBAGLBSA-N
     RDKit          3D

 19 20  0  0  0  0  0  0  0  0999 V2000
   14.8081    9.8508    8.5754 C   0  0  0  0  0  0  0  0  0  0  0  0
   16.0738    9.2315    8.9345 N   0  0  0  0  0  0  0  0  0  0  0  0
   16.0367    9.1201   10.3417 C   0  0  0  0  0  0  0  0  0  0  0  0
   15.1748    8.1478   10.8722 C   0  0  0  0  0  0  0  0  0  0  0  0
   14.7168    8.2801   12.1674 C   0  0  0  0  0  0  0  0  0  0  0  0
   15.0704    9.4203   12.8780 C   0  0  0  0  0  0  0  0  0  0  0  0
   14.3114    9.8185   14.5295 Br  0  0  0  0  0  0  0  0  0  0  0  0
   15.9807   10.3436   12.3938 C   0  0  0  0  0  0  0  0  0  0  0  0
   16.5219   10.1699   11.1370 C   0  0  0  0  0  0  0  0  0  0  0  0
   17.5951   10.9617   10.6862 N   0  0  0  0  0  0  0  0  0  0  0  0
   18.0011   12.1465   11.2787 C   0  0  0  0  0  0  0  0  0  0  0  0
   17.2172   12.8828   11.8769 O   0  0  0  0  0  0  0  0  0  0  0  0
   19.4902   12.4921   11.0788 C   0  0  2  0  0  0  0  0  0  0  0  0
   20.1843   11.3415   10.5853 O   0  0  0  0  0  0  0  0  0  0  0  0
   21.6005   11.5697   10.5407 C   0  0  0  0  0  0  0  0  0  0  0  0
   22.1234   11.8197   11.9471 C   0  0  0  0  0  0  0  0  0  0  0  0
   21.4163   12.9067   12.5883 N   0  0  0  0  0  0  0  0  0  0  0  0
   20.0904   13.1667   12.3344 C   0  0  0  0  0  0  0  0  0  0  0  0
   19.4799   13.9600   13.0452 O   0  0  0  0  0  0  0  0  0  0  0  0
  1  2  1  0
  2  3  1  0
  3  4  2  0
  4  5  1  0
  5  6  2  0
  6  7  1  0
  6  8  1  0
  8  9  2  0
  9 10  1  0
 10 11  1  0
 11 12  2  0
 13 11  1  1
 13 14  1  0
 14 15  1  0
 15 16  1  0
 16 17  1  0
 17 18  1  0
 18 19  2  0
  9  3  1  0
 18 13  1  0
M  END
>  <ref_pdb>  (484) 
c0270a

>  <inchikey>  (484) 
DRQUGPGTCFEMKO-SNVBAGLBSA-N

>  <original ID>  (484) 
DRQUGPGTCFEMKO-SNVBAGLBSA-N

>  <generation_date>  (484) 
None

>  <alias>  (484) 
None

>  <tags>  (484) 
[]

>  <ref_mols>  (484) 
c0692a,c1116a

>  <ref_url>  (484) 
None

>  <submitter_name>  (484) 
None

>  <exports>  (484) 
nan

>  <original SMILES>  (484) 
CNc1ccc(Br)cc1NC(=O)[C@@H]1OCCNC1=O

>  <method>  (484) 
None

>  <submitter_email>  (484) 
None

>  <HIPPO ID>  (484) 
114648

$$$$
DRQUGPGTCFEMKO-JTQLQIEISA-N
     RDKit          3D

 19 20  0  0  0  0  0  0  0  0999 V2000
   14.8399    9.8893    8.5734 C   0  0  0  0  0  0  0  0  0  0  0  0
   16.1173    9.2981    8.9389 N   0  0  0  0  0  0  0  0  0  0  0  0
   16.0816    9.1951   10.3459 C   0  0  0  0  0  0  0  0  0  0  0  0
   15.2218    8.2167   10.8732 C   0  0  0  0  0  0  0  0  0  0  0  0
   14.7520    8.3471   12.1629 C   0  0  0  0  0  0  0  0  0  0  0  0
   15.0942    9.4902   12.8720 C   0  0  0  0  0  0  0  0  0  0  0  0
   14.3217    9.8844   14.5175 Br  0  0  0  0  0  0  0  0  0  0  0  0
   16.0064   10.4169   12.3941 C   0  0  0  0  0  0  0  0  0  0  0  0
   16.5634   10.2474   11.1430 C   0  0  0  0  0  0  0  0  0  0  0  0
   17.6519   11.0359   10.7095 N   0  0  0  0  0  0  0  0  0  0  0  0
   18.1048   12.1807   11.3550 C   0  0  0  0  0  0  0  0  0  0  0  0
   17.3594   12.9166   12.0004 O   0  0  0  0  0  0  0  0  0  0  0  0
   19.6304   12.3862   11.2962 C   0  0  1  0  0  0  0  0  0  0  0  0
   20.2490   11.5024   10.3643 O   0  0  0  0  0  0  0  0  0  0  0  0
   21.6788   11.5783   10.4933 C   0  0  0  0  0  0  0  0  0  0  0  0
   22.1793   12.9855   10.1655 C   0  0  0  0  0  0  0  0  0  0  0  0
   21.3604   14.0371   10.7427 N   0  0  0  0  0  0  0  0  0  0  0  0
   20.0940   13.8426   11.2413 C   0  0  0  0  0  0  0  0  0  0  0  0
   19.4683   14.7988   11.6858 O   0  0  0  0  0  0  0  0  0  0  0  0
  1  2  1  0
  2  3  1  0
  3  4  2  0
  4  5  1  0
  5  6  2  0
  6  7  1  0
  6  8  1  0
  8  9  2  0
  9 10  1  0
 10 11  1  0
 11 12  2  0
 13 11  1  6
 13 14  1  0
 14 15  1  0
 15 16  1  0
 16 17  1  0
 17 18  1  0
 18 19  2  0
  9  3  1  0
 18 13  1  0
M  END
>  <ref_pdb>  (485) 
c0270a

>  <inchikey>  (485) 
DRQUGPGTCFEMKO-JTQLQIEISA-N

>  <original ID>  (485) 
DRQUGPGTCFEMKO-JTQLQIEISA-N

>  <generation_date>  (485) 
None

>  <alias>  (485) 
None

>  <tags>  (485) 
[]

>  <ref_mols>  (485) 
c0692a,c1116a

>  <ref_url>  (485) 
None

>  <submitter_name>  (485) 
None

>  <exports>  (485) 
nan

>  <original SMILES>  (485) 
CNc1ccc(Br)cc1NC(=O)[C@H]1OCCNC1=O

>  <method>  (485) 
None

>  <submitter_email>  (485) 
None

>  <HIPPO ID>  (485) 
114649

$$$$
YSGOKMNPKMUDDP-VIFPVBQESA-N
     RDKit          3D

 19 20  0  0  0  0  0  0  0  0999 V2000
   16.5218   11.2843   13.3198 N   0  0  0  0  0  0  0  0  0  0  0  0
   16.0161   10.5650   12.2178 C   0  0  0  0  0  0  0  0  0  0  0  0
   14.9974    9.6484   12.4564 C   0  0  0  0  0  0  0  0  0  0  0  0
   14.2598    9.7729   13.5982 O   0  0  0  0  0  0  0  0  0  0  0  0
   14.5911    8.7260   11.5152 C   0  0  0  0  0  0  0  0  0  0  0  0
   14.9932    8.9333   10.2174 C   0  0  0  0  0  0  0  0  0  0  0  0
   13.8188    8.4102    8.8594 Br  0  0  0  0  0  0  0  0  0  0  0  0
   16.0817    9.7384    9.9405 C   0  0  0  0  0  0  0  0  0  0  0  0
   16.6397   10.5182   10.9589 C   0  0  0  0  0  0  0  0  0  0  0  0
   17.8527   11.1662   10.6683 N   0  0  0  0  0  0  0  0  0  0  0  0
   18.3547   12.2967   11.2856 C   0  0  0  0  0  0  0  0  0  0  0  0
   17.6520   13.1020   11.9007 O   0  0  0  0  0  0  0  0  0  0  0  0
   19.8798   12.4275   11.2097 C   0  0  1  0  0  0  0  0  0  0  0  0
   20.4517   11.2622   10.6059 O   0  0  0  0  0  0  0  0  0  0  0  0
   21.8766   11.2916   10.7642 C   0  0  0  0  0  0  0  0  0  0  0  0
   22.4811   12.4881   10.0353 C   0  0  0  0  0  0  0  0  0  0  0  0
   21.7465   13.7212   10.2658 N   0  0  0  0  0  0  0  0  0  0  0  0
   20.4020   13.7151   10.5663 C   0  0  0  0  0  0  0  0  0  0  0  0
   19.7422   14.7206   10.3360 O   0  0  0  0  0  0  0  0  0  0  0  0
  1  2  1  0
  2  3  2  0
  3  4  1  0
  3  5  1  0
  5  6  2  0
  6  7  1  0
  6  8  1  0
  8  9  2  0
  9 10  1  0
 10 11  1  0
 11 12  2  0
 13 11  1  6
 13 14  1  0
 14 15  1  0
 15 16  1  0
 16 17  1  0
 17 18  1  0
 18 19  2  0
  9  2  1  0
 18 13  1  0
M  END
>  <ref_pdb>  (486) 
c0270a

>  <inchikey>  (486) 
YSGOKMNPKMUDDP-VIFPVBQESA-N

>  <original ID>  (486) 
YSGOKMNPKMUDDP-VIFPVBQESA-N

>  <generation_date>  (486) 
None

>  <alias>  (486) 
None

>  <tags>  (486) 
[]

>  <ref_mols>  (486) 
c0692a,c1116a

>  <ref_url>  (486) 
None

>  <submitter_name>  (486) 
None

>  <exports>  (486) 
nan

>  <original SMILES>  (486) 
Nc1c(O)cc(Br)cc1NC(=O)[C@H]1OCCNC1=O

>  <method>  (486) 
None

>  <submitter_email>  (486) 
None

>  <HIPPO ID>  (486) 
114652

$$$$
SEROCRLBNDMMJR-SECBINFHSA-N
     RDKit          3D

 19 20  0  0  0  0  0  0  0  0999 V2000
   16.1756    9.4781    8.6181 N   0  0  0  0  0  0  0  0  0  0  0  0
   15.7755    9.4074    9.9497 C   0  0  0  0  0  0  0  0  0  0  0  0
   14.9392    8.3492   10.3063 C   0  0  0  0  0  0  0  0  0  0  0  0
   14.5502    8.1900   11.6256 C   0  0  0  0  0  0  0  0  0  0  0  0
   14.9457    9.1377   12.5658 C   0  0  0  0  0  0  0  0  0  0  0  0
   14.2655    9.0818   14.3180 Br  0  0  0  0  0  0  0  0  0  0  0  0
   15.8305   10.1564   12.2372 C   0  0  0  0  0  0  0  0  0  0  0  0
   16.2458   10.9609   13.2611 O   0  0  0  0  0  0  0  0  0  0  0  0
   16.3285   10.2441   10.9392 C   0  0  0  0  0  0  0  0  0  0  0  0
   17.4690   11.0105   10.5943 N   0  0  0  0  0  0  0  0  0  0  0  0
   17.9801   12.0943   11.2866 C   0  0  0  0  0  0  0  0  0  0  0  0
   17.2763   12.7668   12.0404 O   0  0  0  0  0  0  0  0  0  0  0  0
   19.4540   12.4077   10.9943 C   0  0  2  0  0  0  0  0  0  0  0  0
   20.1819   11.1826   10.9295 O   0  0  0  0  0  0  0  0  0  0  0  0
   21.5898   11.4174   10.8043 C   0  0  0  0  0  0  0  0  0  0  0  0
   22.0882   12.2158   12.0031 C   0  0  0  0  0  0  0  0  0  0  0  0
   21.3628   13.4589   12.1525 N   0  0  0  0  0  0  0  0  0  0  0  0
   20.0226   13.5504   11.8599 C   0  0  0  0  0  0  0  0  0  0  0  0
   19.3935   14.5599   12.1642 O   0  0  0  0  0  0  0  0  0  0  0  0
  1  2  1  0
  2  3  2  0
  3  4  1  0
  4  5  2  0
  5  6  1  0
  5  7  1  0
  7  8  1  0
  7  9  2  0
  9 10  1  0
 10 11  1  0
 11 12  2  0
 13 11  1  1
 13 14  1  0
 14 15  1  0
 15 16  1  0
 16 17  1  0
 17 18  1  0
 18 19  2  0
  9  2  1  0
 18 13  1  0
M  END
>  <ref_pdb>  (487) 
c0270a

>  <inchikey>  (487) 
SEROCRLBNDMMJR-SECBINFHSA-N

>  <original ID>  (487) 
SEROCRLBNDMMJR-SECBINFHSA-N

>  <generation_date>  (487) 
None

>  <alias>  (487) 
None

>  <tags>  (487) 
[]

>  <ref_mols>  (487) 
c0692a,c1116a

>  <ref_url>  (487) 
None

>  <submitter_name>  (487) 
None

>  <exports>  (487) 
nan

>  <original SMILES>  (487) 
Nc1ccc(Br)c(O)c1NC(=O)[C@@H]1OCCNC1=O

>  <method>  (487) 
None

>  <submitter_email>  (487) 
None

>  <HIPPO ID>  (487) 
114653

$$$$
SEROCRLBNDMMJR-VIFPVBQESA-N
     RDKit          3D

 19 20  0  0  0  0  0  0  0  0999 V2000
   16.1740    9.4626    8.7012 N   0  0  0  0  0  0  0  0  0  0  0  0
   15.9903    9.3629   10.0802 C   0  0  0  0  0  0  0  0  0  0  0  0
   15.0530    8.4127   10.4920 C   0  0  0  0  0  0  0  0  0  0  0  0
   14.6347    8.3886   11.8061 C   0  0  0  0  0  0  0  0  0  0  0  0
   15.0286    9.4194   12.6527 C   0  0  0  0  0  0  0  0  0  0  0  0
   14.2884    9.5496   14.3719 Br  0  0  0  0  0  0  0  0  0  0  0  0
   15.9450   10.3868   12.2506 C   0  0  0  0  0  0  0  0  0  0  0  0
   16.3261   11.3039   13.1898 O   0  0  0  0  0  0  0  0  0  0  0  0
   16.4966   10.3300   10.9734 C   0  0  0  0  0  0  0  0  0  0  0  0
   17.6619   11.0532   10.5975 N   0  0  0  0  0  0  0  0  0  0  0  0
   18.1833   12.1803   11.2112 C   0  0  0  0  0  0  0  0  0  0  0  0
   17.4672   12.9839   11.8149 O   0  0  0  0  0  0  0  0  0  0  0  0
   19.7170   12.3095   11.1720 C   0  0  1  0  0  0  0  0  0  0  0  0
   20.3071   11.1479   10.5867 O   0  0  0  0  0  0  0  0  0  0  0  0
   21.7247   11.1618   10.8150 C   0  0  0  0  0  0  0  0  0  0  0  0
   22.3764   12.3517   10.1189 C   0  0  0  0  0  0  0  0  0  0  0  0
   21.6438   13.5894   10.3233 N   0  0  0  0  0  0  0  0  0  0  0  0
   20.2922   13.6039   10.5871 C   0  0  0  0  0  0  0  0  0  0  0  0
   19.6703   14.6373   10.3802 O   0  0  0  0  0  0  0  0  0  0  0  0
  1  2  1  0
  2  3  2  0
  3  4  1  0
  4  5  2  0
  5  6  1  0
  5  7  1  0
  7  8  1  0
  7  9  2  0
  9 10  1  0
 10 11  1  0
 11 12  2  0
 13 11  1  6
 13 14  1  0
 14 15  1  0
 15 16  1  0
 16 17  1  0
 17 18  1  0
 18 19  2  0
  9  2  1  0
 18 13  1  0
M  END
>  <ref_pdb>  (488) 
c0270a

>  <inchikey>  (488) 
SEROCRLBNDMMJR-VIFPVBQESA-N

>  <original ID>  (488) 
SEROCRLBNDMMJR-VIFPVBQESA-N

>  <generation_date>  (488) 
None

>  <alias>  (488) 
None

>  <tags>  (488) 
[]

>  <ref_mols>  (488) 
c0692a,c1116a

>  <ref_url>  (488) 
None

>  <submitter_name>  (488) 
None

>  <exports>  (488) 
nan

>  <original SMILES>  (488) 
Nc1ccc(Br)c(O)c1NC(=O)[C@H]1OCCNC1=O

>  <method>  (488) 
None

>  <submitter_email>  (488) 
None

>  <HIPPO ID>  (488) 
114654

$$$$
VAANNSBYKZIPGC-SECBINFHSA-N
     RDKit          3D

 19 20  0  0  0  0  0  0  0  0999 V2000
   15.9582   10.7185   13.1844 N   0  0  0  0  0  0  0  0  0  0  0  0
   15.6704   10.0616   11.9571 C   0  0  0  0  0  0  0  0  0  0  0  0
   16.3533   10.2323   10.7545 C   0  0  0  0  0  0  0  0  0  0  0  0
   17.5062   11.0220   10.5759 N   0  0  0  0  0  0  0  0  0  0  0  0
   18.0002   12.0359   11.3799 C   0  0  0  0  0  0  0  0  0  0  0  0
   17.3445   12.5816   12.2639 O   0  0  0  0  0  0  0  0  0  0  0  0
   19.4496   12.4254   11.0465 C   0  0  2  0  0  0  0  0  0  0  0  0
   20.2064   11.2226   10.9034 O   0  0  0  0  0  0  0  0  0  0  0  0
   21.6064   11.4961   10.7682 C   0  0  0  0  0  0  0  0  0  0  0  0
   22.1050   12.2310   12.0059 C   0  0  0  0  0  0  0  0  0  0  0  0
   21.3539   13.4470   12.2418 N   0  0  0  0  0  0  0  0  0  0  0  0
   20.0118   13.5347   11.9563 C   0  0  0  0  0  0  0  0  0  0  0  0
   19.3713   14.5208   12.3107 O   0  0  0  0  0  0  0  0  0  0  0  0
   15.9534    9.4680    9.6495 C   0  0  0  0  0  0  0  0  0  0  0  0
   14.9973    8.4622    9.7660 C   0  0  0  0  0  0  0  0  0  0  0  0
   14.5053    8.1262   11.0090 C   0  0  0  0  0  0  0  0  0  0  0  0
   13.4589    6.5552   11.1618 Br  0  0  0  0  0  0  0  0  0  0  0  0
   14.8231    8.9528   12.0783 C   0  0  0  0  0  0  0  0  0  0  0  0
   14.3018    8.7845   13.3313 O   0  0  0  0  0  0  0  0  0  0  0  0
  1  2  1  0
  2  3  2  0
  3  4  1  0
  4  5  1  0
  5  6  2  0
  7  5  1  1
  7  8  1  0
  8  9  1  0
  9 10  1  0
 10 11  1  0
 11 12  1  0
 12 13  2  0
  3 14  1  0
 14 15  2  0
 15 16  1  0
 16 17  1  0
 16 18  2  0
 18 19  1  0
 18  2  1  0
 12  7  1  0
M  END
>  <ref_pdb>  (489) 
c0270a

>  <inchikey>  (489) 
VAANNSBYKZIPGC-SECBINFHSA-N

>  <original ID>  (489) 
VAANNSBYKZIPGC-SECBINFHSA-N

>  <generation_date>  (489) 
None

>  <alias>  (489) 
None

>  <tags>  (489) 
[]

>  <ref_mols>  (489) 
c0692a,c1116a

>  <ref_url>  (489) 
None

>  <submitter_name>  (489) 
None

>  <exports>  (489) 
nan

>  <original SMILES>  (489) 
Nc1c(NC(=O)[C@@H]2OCCNC2=O)ccc(Br)c1O

>  <method>  (489) 
None

>  <submitter_email>  (489) 
None

>  <HIPPO ID>  (489) 
114655

$$$$
VAANNSBYKZIPGC-VIFPVBQESA-N
     RDKit          3D

 19 20  0  0  0  0  0  0  0  0999 V2000
   15.9382   11.0463   13.1263 N   0  0  0  0  0  0  0  0  0  0  0  0
   15.7319   10.2679   11.9538 C   0  0  0  0  0  0  0  0  0  0  0  0
   16.4962   10.3472   10.7874 C   0  0  0  0  0  0  0  0  0  0  0  0
   17.6863   11.0937   10.6470 N   0  0  0  0  0  0  0  0  0  0  0  0
   18.1153   12.1825   11.3845 C   0  0  0  0  0  0  0  0  0  0  0  0
   17.3580   12.8754   12.0633 O   0  0  0  0  0  0  0  0  0  0  0  0
   19.6395   12.4090   11.3408 C   0  0  1  0  0  0  0  0  0  0  0  0
   20.2685   11.5315   10.4057 O   0  0  0  0  0  0  0  0  0  0  0  0
   21.6970   11.6238   10.5319 C   0  0  0  0  0  0  0  0  0  0  0  0
   22.1754   13.0363   10.1961 C   0  0  0  0  0  0  0  0  0  0  0  0
   21.3487   14.0779   10.7814 N   0  0  0  0  0  0  0  0  0  0  0  0
   20.0768   13.8705   11.2617 C   0  0  0  0  0  0  0  0  0  0  0  0
   19.4222   14.8229   11.6709 O   0  0  0  0  0  0  0  0  0  0  0  0
   16.1432    9.5292    9.7045 C   0  0  0  0  0  0  0  0  0  0  0  0
   15.1556    8.5550    9.8088 C   0  0  0  0  0  0  0  0  0  0  0  0
   14.5969    8.2898   11.0383 C   0  0  0  0  0  0  0  0  0  0  0  0
   13.5830    6.6959   11.2143 Br  0  0  0  0  0  0  0  0  0  0  0  0
   14.8742    9.1631   12.0871 C   0  0  0  0  0  0  0  0  0  0  0  0
   14.3568    8.9777   13.3387 O   0  0  0  0  0  0  0  0  0  0  0  0
  1  2  1  0
  2  3  2  0
  3  4  1  0
  4  5  1  0
  5  6  2  0
  7  5  1  6
  7  8  1  0
  8  9  1  0
  9 10  1  0
 10 11  1  0
 11 12  1  0
 12 13  2  0
  3 14  1  0
 14 15  2  0
 15 16  1  0
 16 17  1  0
 16 18  2  0
 18 19  1  0
 18  2  1  0
 12  7  1  0
M  END
>  <ref_pdb>  (490) 
c0270a

>  <inchikey>  (490) 
VAANNSBYKZIPGC-VIFPVBQESA-N

>  <original ID>  (490) 
VAANNSBYKZIPGC-VIFPVBQESA-N

>  <generation_date>  (490) 
None

>  <alias>  (490) 
None

>  <tags>  (490) 
[]

>  <ref_mols>  (490) 
c0692a,c1116a

>  <ref_url>  (490) 
None

>  <submitter_name>  (490) 
None

>  <exports>  (490) 
nan

>  <original SMILES>  (490) 
Nc1c(NC(=O)[C@H]2OCCNC2=O)ccc(Br)c1O

>  <method>  (490) 
None

>  <submitter_email>  (490) 
None

>  <HIPPO ID>  (490) 
114656

$$$$
WASUKNRGEFQPBQ-SNVBAGLBSA-N
     RDKit          3D

 19 20  0  0  0  0  0  0  0  0999 V2000
   14.3849    9.0650   13.8462 C   0  0  0  0  0  0  0  0  0  0  0  0
   14.8799    9.0393   12.4418 C   0  0  0  0  0  0  0  0  0  0  0  0
   15.7705   10.0719   12.1276 C   0  0  0  0  0  0  0  0  0  0  0  0
   16.3065   10.1853   10.8571 C   0  0  0  0  0  0  0  0  0  0  0  0
   17.4302   10.9984   10.6004 N   0  0  0  0  0  0  0  0  0  0  0  0
   17.8963   12.0206   11.4145 C   0  0  0  0  0  0  0  0  0  0  0  0
   17.1832   12.5723   12.2504 O   0  0  0  0  0  0  0  0  0  0  0  0
   19.3608   12.4412   11.1458 C   0  0  2  0  0  0  0  0  0  0  0  0
   20.0805   11.3210   10.6194 O   0  0  0  0  0  0  0  0  0  0  0  0
   21.4907   11.5829   10.5505 C   0  0  0  0  0  0  0  0  0  0  0  0
   22.0389   11.8452   11.9439 C   0  0  0  0  0  0  0  0  0  0  0  0
   21.3276   12.9270   12.5870 N   0  0  0  0  0  0  0  0  0  0  0  0
   19.9919   13.1608   12.3627 C   0  0  0  0  0  0  0  0  0  0  0  0
   19.3933   13.9726   13.0628 O   0  0  0  0  0  0  0  0  0  0  0  0
   15.7946    9.3732    9.8416 C   0  0  0  0  0  0  0  0  0  0  0  0
   16.2471    9.4589    8.5327 N   0  0  0  0  0  0  0  0  0  0  0  0
   14.9520    8.3115   10.1519 C   0  0  0  0  0  0  0  0  0  0  0  0
   14.5306    8.1083   11.4550 C   0  0  0  0  0  0  0  0  0  0  0  0
   13.4808    6.5520   11.7529 Br  0  0  0  0  0  0  0  0  0  0  0  0
  1  2  1  0
  2  3  2  0
  3  4  1  0
  4  5  1  0
  5  6  1  0
  6  7  2  0
  8  6  1  1
  8  9  1  0
  9 10  1  0
 10 11  1  0
 11 12  1  0
 12 13  1  0
 13 14  2  0
  4 15  2  0
 15 16  1  0
 15 17  1  0
 17 18  2  0
 18 19  1  0
 18  2  1  0
 13  8  1  0
M  END
>  <ref_pdb>  (491) 
c0270a

>  <inchikey>  (491) 
WASUKNRGEFQPBQ-SNVBAGLBSA-N

>  <original ID>  (491) 
WASUKNRGEFQPBQ-SNVBAGLBSA-N

>  <generation_date>  (491) 
None

>  <alias>  (491) 
None

>  <tags>  (491) 
[]

>  <ref_mols>  (491) 
c0692a,c1116a

>  <ref_url>  (491) 
None

>  <submitter_name>  (491) 
None

>  <exports>  (491) 
nan

>  <original SMILES>  (491) 
Cc1cc(NC(=O)[C@@H]2OCCNC2=O)c(N)cc1Br

>  <method>  (491) 
None

>  <submitter_email>  (491) 
None

>  <HIPPO ID>  (491) 
114657

$$$$
WASUKNRGEFQPBQ-JTQLQIEISA-N
     RDKit          3D

 19 20  0  0  0  0  0  0  0  0999 V2000
   14.3630    9.6507   13.9744 C   0  0  0  0  0  0  0  0  0  0  0  0
   14.9198    9.4450   12.6093 C   0  0  0  0  0  0  0  0  0  0  0  0
   15.8176   10.4411   12.1899 C   0  0  0  0  0  0  0  0  0  0  0  0
   16.4063   10.3732   10.9417 C   0  0  0  0  0  0  0  0  0  0  0  0
   17.5836   11.0912   10.6219 N   0  0  0  0  0  0  0  0  0  0  0  0
   18.1273   12.1560   11.3275 C   0  0  0  0  0  0  0  0  0  0  0  0
   17.4577   12.8945   12.0512 O   0  0  0  0  0  0  0  0  0  0  0  0
   19.6641   12.2928   11.2270 C   0  0  1  0  0  0  0  0  0  0  0  0
   20.2491   11.1410   10.6167 O   0  0  0  0  0  0  0  0  0  0  0  0
   21.6698   11.1506   10.8249 C   0  0  0  0  0  0  0  0  0  0  0  0
   22.3156   12.3481   10.1378 C   0  0  0  0  0  0  0  0  0  0  0  0
   21.5709   13.5786   10.3382 N   0  0  0  0  0  0  0  0  0  0  0  0
   20.2300   13.5949   10.6530 C   0  0  0  0  0  0  0  0  0  0  0  0
   19.6176   14.6435   10.5065 O   0  0  0  0  0  0  0  0  0  0  0  0
   15.9090    9.4387   10.0282 C   0  0  0  0  0  0  0  0  0  0  0  0
   16.4025    9.3449    8.7454 N   0  0  0  0  0  0  0  0  0  0  0  0
   15.0684    8.4136   10.4502 C   0  0  0  0  0  0  0  0  0  0  0  0
   14.6305    8.3697   11.7577 C   0  0  0  0  0  0  0  0  0  0  0  0
   13.6688    6.7982   12.2355 Br  0  0  0  0  0  0  0  0  0  0  0  0
  1  2  1  0
  2  3  2  0
  3  4  1  0
  4  5  1  0
  5  6  1  0
  6  7  2  0
  8  6  1  6
  8  9  1  0
  9 10  1  0
 10 11  1  0
 11 12  1  0
 12 13  1  0
 13 14  2  0
  4 15  2  0
 15 16  1  0
 15 17  1  0
 17 18  2  0
 18 19  1  0
 18  2  1  0
 13  8  1  0
M  END
>  <ref_pdb>  (492) 
c0270a

>  <inchikey>  (492) 
WASUKNRGEFQPBQ-JTQLQIEISA-N

>  <original ID>  (492) 
WASUKNRGEFQPBQ-JTQLQIEISA-N

>  <generation_date>  (492) 
None

>  <alias>  (492) 
None

>  <tags>  (492) 
[]

>  <ref_mols>  (492) 
c0692a,c1116a

>  <ref_url>  (492) 
None

>  <submitter_name>  (492) 
None

>  <exports>  (492) 
nan

>  <original SMILES>  (492) 
Cc1cc(NC(=O)[C@H]2OCCNC2=O)c(N)cc1Br

>  <method>  (492) 
None

>  <submitter_email>  (492) 
None

>  <HIPPO ID>  (492) 
114658

$$$$
AURUWVUCAAIWMD-JTQLQIEISA-N
     RDKit          3D

 19 20  0  0  0  0  0  0  0  0999 V2000
   13.2831    9.2550    9.0581 C   0  0  0  0  0  0  0  0  0  0  0  0
   14.3740    9.9736    9.7954 C   0  0  0  0  0  0  0  0  0  0  0  0
   15.6408    9.4758    9.6098 C   0  0  0  0  0  0  0  0  0  0  0  0
   16.6729   10.1235   10.2400 C   0  0  0  0  0  0  0  0  0  0  0  0
   17.9984    9.9300    9.8725 N   0  0  0  0  0  0  0  0  0  0  0  0
   16.4713   11.0646   11.2451 C   0  0  0  0  0  0  0  0  0  0  0  0
   17.6649   11.4945   11.8172 N   0  0  0  0  0  0  0  0  0  0  0  0
   18.0142   12.8145   11.9781 C   0  0  0  0  0  0  0  0  0  0  0  0
   17.1990   13.7103   12.1393 O   0  0  0  0  0  0  0  0  0  0  0  0
   19.5485   12.9582   11.9249 C   0  0  1  0  0  0  0  0  0  0  0  0
   20.0434   11.9611   10.9970 O   0  0  0  0  0  0  0  0  0  0  0  0
   21.4774   11.9798   10.9588 C   0  0  0  0  0  0  0  0  0  0  0  0
   21.9647   13.3206   10.4184 C   0  0  0  0  0  0  0  0  0  0  0  0
   21.2616   14.4528   10.9933 N   0  0  0  0  0  0  0  0  0  0  0  0
   20.0518   14.3632   11.6393 C   0  0  0  0  0  0  0  0  0  0  0  0
   19.4929   15.3864   12.0163 O   0  0  0  0  0  0  0  0  0  0  0  0
   15.2365   11.5801   11.4644 C   0  0  0  0  0  0  0  0  0  0  0  0
   14.2268   11.0853   10.6662 C   0  0  0  0  0  0  0  0  0  0  0  0
   13.0891   11.7760   10.7411 F   0  0  0  0  0  0  0  0  0  0  0  0
  1  2  1  0
  2  3  2  0
  3  4  1  0
  4  5  1  0
  4  6  2  0
  6  7  1  0
  7  8  1  0
  8  9  2  0
 10  8  1  6
 10 11  1  0
 11 12  1  0
 12 13  1  0
 13 14  1  0
 14 15  1  0
 15 16  2  0
  6 17  1  0
 17 18  2  0
 18 19  1  0
 18  2  1  0
 15 10  1  0
M  END
>  <ref_pdb>  (493) 
c0270a

>  <inchikey>  (493) 
AURUWVUCAAIWMD-JTQLQIEISA-N

>  <original ID>  (493) 
AURUWVUCAAIWMD-JTQLQIEISA-N

>  <generation_date>  (493) 
None

>  <alias>  (493) 
None

>  <tags>  (493) 
[]

>  <ref_mols>  (493) 
c0692a,c1116a

>  <ref_url>  (493) 
None

>  <submitter_name>  (493) 
None

>  <exports>  (493) 
nan

>  <original SMILES>  (493) 
Cc1cc(N)c(NC(=O)[C@H]2OCCNC2=O)cc1F

>  <method>  (493) 
None

>  <submitter_email>  (493) 
None

>  <HIPPO ID>  (493) 
114668

$$$$
SLZYUASDRNVGCE-SNVBAGLBSA-N
     RDKit          3D

 19 20  0  0  0  0  0  0  0  0999 V2000
   14.3438    9.2097   13.8526 C   0  0  0  0  0  0  0  0  0  0  0  0
   14.8811    9.1711   12.4688 C   0  0  0  0  0  0  0  0  0  0  0  0
   15.8156   10.1476   12.1483 C   0  0  0  0  0  0  0  0  0  0  0  0
   16.3400   10.2204   10.8706 C   0  0  0  0  0  0  0  0  0  0  0  0
   17.4649   11.0187   10.5858 N   0  0  0  0  0  0  0  0  0  0  0  0
   18.0074   11.9959   11.4135 C   0  0  0  0  0  0  0  0  0  0  0  0
   17.4088   12.4934   12.3644 O   0  0  0  0  0  0  0  0  0  0  0  0
   19.4413   12.3934   11.0366 C   0  0  2  0  0  0  0  0  0  0  0  0
   20.2044   11.1958   10.8895 O   0  0  0  0  0  0  0  0  0  0  0  0
   21.6038   11.4731   10.7606 C   0  0  0  0  0  0  0  0  0  0  0  0
   22.0953   12.2168   11.9957 C   0  0  0  0  0  0  0  0  0  0  0  0
   21.3493   13.4393   12.2091 N   0  0  0  0  0  0  0  0  0  0  0  0
   20.0092   13.5270   11.9148 C   0  0  0  0  0  0  0  0  0  0  0  0
   19.3756   14.5304   12.2331 O   0  0  0  0  0  0  0  0  0  0  0  0
   15.8045    9.3974    9.8666 C   0  0  0  0  0  0  0  0  0  0  0  0
   16.2574    9.4460    8.5549 N   0  0  0  0  0  0  0  0  0  0  0  0
   14.9149    8.3812   10.1919 C   0  0  0  0  0  0  0  0  0  0  0  0
   14.4736    8.2614   11.4915 C   0  0  0  0  0  0  0  0  0  0  0  0
   13.5649    7.3129   11.7618 F   0  0  0  0  0  0  0  0  0  0  0  0
  1  2  1  0
  2  3  2  0
  3  4  1  0
  4  5  1  0
  5  6  1  0
  6  7  2  0
  8  6  1  1
  8  9  1  0
  9 10  1  0
 10 11  1  0
 11 12  1  0
 12 13  1  0
 13 14  2  0
  4 15  2  0
 15 16  1  0
 15 17  1  0
 17 18  2  0
 18 19  1  0
 18  2  1  0
 13  8  1  0
M  END
>  <ref_pdb>  (494) 
c0270a

>  <inchikey>  (494) 
SLZYUASDRNVGCE-SNVBAGLBSA-N

>  <original ID>  (494) 
SLZYUASDRNVGCE-SNVBAGLBSA-N

>  <generation_date>  (494) 
None

>  <alias>  (494) 
None

>  <tags>  (494) 
[]

>  <ref_mols>  (494) 
c0692a,c1116a

>  <ref_url>  (494) 
None

>  <submitter_name>  (494) 
None

>  <exports>  (494) 
nan

>  <original SMILES>  (494) 
Cc1cc(NC(=O)[C@@H]2OCCNC2=O)c(N)cc1F

>  <method>  (494) 
None

>  <submitter_email>  (494) 
None

>  <HIPPO ID>  (494) 
114669

$$$$
SLZYUASDRNVGCE-JTQLQIEISA-N
     RDKit          3D

 19 20  0  0  0  0  0  0  0  0999 V2000
   14.3534    9.4328   13.8392 C   0  0  0  0  0  0  0  0  0  0  0  0
   14.9255    9.3279   12.4728 C   0  0  0  0  0  0  0  0  0  0  0  0
   15.8798   10.2813   12.1327 C   0  0  0  0  0  0  0  0  0  0  0  0
   16.4395   10.2953   10.8662 C   0  0  0  0  0  0  0  0  0  0  0  0
   17.6016   11.0550   10.6030 N   0  0  0  0  0  0  0  0  0  0  0  0
   18.0876   12.0913   11.3930 C   0  0  0  0  0  0  0  0  0  0  0  0
   17.3864   12.7153   12.1892 O   0  0  0  0  0  0  0  0  0  0  0  0
   19.6070   12.3347   11.2851 C   0  0  1  0  0  0  0  0  0  0  0  0
   20.2341   11.4887   10.3260 O   0  0  0  0  0  0  0  0  0  0  0  0
   21.6643   11.5816   10.4584 C   0  0  0  0  0  0  0  0  0  0  0  0
   22.1457   13.0072   10.1809 C   0  0  0  0  0  0  0  0  0  0  0  0
   21.3069   14.0291   10.7833 N   0  0  0  0  0  0  0  0  0  0  0  0
   20.0336   13.8021   11.2516 C   0  0  0  0  0  0  0  0  0  0  0  0
   19.3747   14.7396   11.6865 O   0  0  0  0  0  0  0  0  0  0  0  0
   15.9068    9.4390    9.8877 C   0  0  0  0  0  0  0  0  0  0  0  0
   16.3470    9.4425    8.5709 N   0  0  0  0  0  0  0  0  0  0  0  0
   14.9960    8.4476   10.2331 C   0  0  0  0  0  0  0  0  0  0  0  0
   14.5328    8.3792   11.5270 C   0  0  0  0  0  0  0  0  0  0  0  0
   13.6277    7.4337   11.8191 F   0  0  0  0  0  0  0  0  0  0  0  0
  1  2  1  0
  2  3  2  0
  3  4  1  0
  4  5  1  0
  5  6  1  0
  6  7  2  0
  8  6  1  6
  8  9  1  0
  9 10  1  0
 10 11  1  0
 11 12  1  0
 12 13  1  0
 13 14  2  0
  4 15  2  0
 15 16  1  0
 15 17  1  0
 17 18  2  0
 18 19  1  0
 18  2  1  0
 13  8  1  0
M  END
>  <ref_pdb>  (495) 
c0270a

>  <inchikey>  (495) 
SLZYUASDRNVGCE-JTQLQIEISA-N

>  <original ID>  (495) 
SLZYUASDRNVGCE-JTQLQIEISA-N

>  <generation_date>  (495) 
None

>  <alias>  (495) 
None

>  <tags>  (495) 
[]

>  <ref_mols>  (495) 
c0692a,c1116a

>  <ref_url>  (495) 
None

>  <submitter_name>  (495) 
None

>  <exports>  (495) 
nan

>  <original SMILES>  (495) 
Cc1cc(NC(=O)[C@H]2OCCNC2=O)c(N)cc1F

>  <method>  (495) 
None

>  <submitter_email>  (495) 
None

>  <HIPPO ID>  (495) 
114670

$$$$
GCDUHEQDCCIVQB-SECBINFHSA-N
     RDKit          3D

 19 20  0  0  0  0  0  0  0  0999 V2000
   16.1992   10.9216   13.1893 N   0  0  0  0  0  0  0  0  0  0  0  0
   15.7748   10.1832   12.0561 C   0  0  0  0  0  0  0  0  0  0  0  0
   14.8257    9.1874   12.2773 C   0  0  0  0  0  0  0  0  0  0  0  0
   14.1948    9.2183   13.4542 F   0  0  0  0  0  0  0  0  0  0  0  0
   14.4600    8.2434   11.3223 C   0  0  0  0  0  0  0  0  0  0  0  0
   14.9723    8.3609   10.0503 C   0  0  0  0  0  0  0  0  0  0  0  0
   15.9501    9.3163    9.8137 C   0  0  0  0  0  0  0  0  0  0  0  0
   16.4640    9.3602    8.5843 F   0  0  0  0  0  0  0  0  0  0  0  0
   16.4206   10.1854   10.8153 C   0  0  0  0  0  0  0  0  0  0  0  0
   17.6007   10.9196   10.5538 N   0  0  0  0  0  0  0  0  0  0  0  0
   18.0047   12.0778   11.1927 C   0  0  0  0  0  0  0  0  0  0  0  0
   17.2108   12.8086   11.7904 O   0  0  0  0  0  0  0  0  0  0  0  0
   19.4985   12.4288   11.0401 C   0  0  2  0  0  0  0  0  0  0  0  0
   20.2226   11.2899   10.5698 O   0  0  0  0  0  0  0  0  0  0  0  0
   21.6331   11.5484   10.5421 C   0  0  0  0  0  0  0  0  0  0  0  0
   22.1304   11.8217   11.9536 C   0  0  0  0  0  0  0  0  0  0  0  0
   21.3907   12.8975   12.5774 N   0  0  0  0  0  0  0  0  0  0  0  0
   20.0592   13.1155   12.3087 C   0  0  0  0  0  0  0  0  0  0  0  0
   19.4161   13.8867   13.0155 O   0  0  0  0  0  0  0  0  0  0  0  0
  1  2  1  0
  2  3  2  0
  3  4  1  0
  3  5  1  0
  5  6  2  0
  6  7  1  0
  7  8  1  0
  7  9  2  0
  9 10  1  0
 10 11  1  0
 11 12  2  0
 13 11  1  1
 13 14  1  0
 14 15  1  0
 15 16  1  0
 16 17  1  0
 17 18  1  0
 18 19  2  0
  9  2  1  0
 18 13  1  0
M  END
>  <ref_pdb>  (496) 
c0270a

>  <inchikey>  (496) 
GCDUHEQDCCIVQB-SECBINFHSA-N

>  <original ID>  (496) 
GCDUHEQDCCIVQB-SECBINFHSA-N

>  <generation_date>  (496) 
None

>  <alias>  (496) 
None

>  <tags>  (496) 
[]

>  <ref_mols>  (496) 
c0692a,c1116a

>  <ref_url>  (496) 
None

>  <submitter_name>  (496) 
None

>  <exports>  (496) 
nan

>  <original SMILES>  (496) 
Nc1c(F)ccc(F)c1NC(=O)[C@@H]1OCCNC1=O

>  <method>  (496) 
None

>  <submitter_email>  (496) 
None

>  <HIPPO ID>  (496) 
114691

$$$$
GCDUHEQDCCIVQB-VIFPVBQESA-N
     RDKit          3D

 19 20  0  0  0  0  0  0  0  0999 V2000
   16.2239   11.1473   13.1434 N   0  0  0  0  0  0  0  0  0  0  0  0
   15.8233   10.3671   12.0306 C   0  0  0  0  0  0  0  0  0  0  0  0
   14.8566    9.3888   12.2692 C   0  0  0  0  0  0  0  0  0  0  0  0
   14.1921    9.4758   13.4250 F   0  0  0  0  0  0  0  0  0  0  0  0
   14.5169    8.3983   11.3522 C   0  0  0  0  0  0  0  0  0  0  0  0
   15.0586    8.4567   10.0906 C   0  0  0  0  0  0  0  0  0  0  0  0
   16.0454    9.3986    9.8377 C   0  0  0  0  0  0  0  0  0  0  0  0
   16.5813    9.3739    8.6182 F   0  0  0  0  0  0  0  0  0  0  0  0
   16.5059   10.3093   10.8117 C   0  0  0  0  0  0  0  0  0  0  0  0
   17.7141   11.0057   10.5531 N   0  0  0  0  0  0  0  0  0  0  0  0
   18.1964   12.1376   11.1942 C   0  0  0  0  0  0  0  0  0  0  0  0
   17.4714   12.9277   11.8040 O   0  0  0  0  0  0  0  0  0  0  0  0
   19.7292   12.2973   11.1655 C   0  0  1  0  0  0  0  0  0  0  0  0
   20.3504   11.1882   10.5160 O   0  0  0  0  0  0  0  0  0  0  0  0
   21.7689   11.2413   10.7205 C   0  0  0  0  0  0  0  0  0  0  0  0
   22.3666   12.4770   10.0570 C   0  0  0  0  0  0  0  0  0  0  0  0
   21.5860   13.6767   10.3020 N   0  0  0  0  0  0  0  0  0  0  0  0
   20.2652   13.6531   10.6870 C   0  0  0  0  0  0  0  0  0  0  0  0
   19.6406   14.7062   10.6837 O   0  0  0  0  0  0  0  0  0  0  0  0
  1  2  1  0
  2  3  2  0
  3  4  1  0
  3  5  1  0
  5  6  2  0
  6  7  1  0
  7  8  1  0
  7  9  2  0
  9 10  1  0
 10 11  1  0
 11 12  2  0
 13 11  1  6
 13 14  1  0
 14 15  1  0
 15 16  1  0
 16 17  1  0
 17 18  1  0
 18 19  2  0
  9  2  1  0
 18 13  1  0
M  END
>  <ref_pdb>  (497) 
c0270a

>  <inchikey>  (497) 
GCDUHEQDCCIVQB-VIFPVBQESA-N

>  <original ID>  (497) 
GCDUHEQDCCIVQB-VIFPVBQESA-N

>  <generation_date>  (497) 
None

>  <alias>  (497) 
None

>  <tags>  (497) 
[]

>  <ref_mols>  (497) 
c0692a,c1116a

>  <ref_url>  (497) 
None

>  <submitter_name>  (497) 
None

>  <exports>  (497) 
nan

>  <original SMILES>  (497) 
Nc1c(F)ccc(F)c1NC(=O)[C@H]1OCCNC1=O

>  <method>  (497) 
None

>  <submitter_email>  (497) 
None

>  <HIPPO ID>  (497) 
114692

$$$$
KPJAMMCWGBMHOE-SNVBAGLBSA-N
     RDKit          3D

 19 20  0  0  0  0  0  0  0  0999 V2000
   15.9763   11.0422   13.4129 C   0  0  0  0  0  0  0  0  0  0  0  0
   15.7134   10.1541   12.2389 C   0  0  0  0  0  0  0  0  0  0  0  0
   14.7862    9.1390   12.4492 C   0  0  0  0  0  0  0  0  0  0  0  0
   14.1245    9.1437   13.6071 F   0  0  0  0  0  0  0  0  0  0  0  0
   14.4779    8.1674   11.5061 C   0  0  0  0  0  0  0  0  0  0  0  0
   14.9629    8.3200   10.2295 C   0  0  0  0  0  0  0  0  0  0  0  0
   15.8130    9.3860    9.9461 C   0  0  0  0  0  0  0  0  0  0  0  0
   16.2618    9.4823    8.6341 N   0  0  0  0  0  0  0  0  0  0  0  0
   16.3044   10.2253   10.9769 C   0  0  0  0  0  0  0  0  0  0  0  0
   17.4644   10.9811   10.6838 N   0  0  0  0  0  0  0  0  0  0  0  0
   17.8938   12.1581   11.2735 C   0  0  0  0  0  0  0  0  0  0  0  0
   17.1360   12.9210   11.8664 O   0  0  0  0  0  0  0  0  0  0  0  0
   19.3758   12.4972   11.0024 C   0  0  2  0  0  0  0  0  0  0  0  0
   20.0802   11.3349   10.5701 O   0  0  0  0  0  0  0  0  0  0  0  0
   21.4652   11.2841   10.9334 C   0  0  0  0  0  0  0  0  0  0  0  0
   22.1094   12.6501   11.1226 C   0  0  0  0  0  0  0  0  0  0  0  0
   21.3694   13.4003   12.1090 N   0  0  0  0  0  0  0  0  0  0  0  0
   19.9979   13.4651   12.0333 C   0  0  0  0  0  0  0  0  0  0  0  0
   19.3854   14.3175   12.6656 O   0  0  0  0  0  0  0  0  0  0  0  0
  1  2  1  0
  2  3  2  0
  3  4  1  0
  3  5  1  0
  5  6  2  0
  6  7  1  0
  7  8  1  0
  7  9  2  0
  9 10  1  0
 10 11  1  0
 11 12  2  0
 13 11  1  1
 13 14  1  0
 14 15  1  0
 15 16  1  0
 16 17  1  0
 17 18  1  0
 18 19  2  0
  9  2  1  0
 18 13  1  0
M  END
>  <ref_pdb>  (498) 
c0270a

>  <inchikey>  (498) 
KPJAMMCWGBMHOE-SNVBAGLBSA-N

>  <original ID>  (498) 
KPJAMMCWGBMHOE-SNVBAGLBSA-N

>  <generation_date>  (498) 
None

>  <alias>  (498) 
None

>  <tags>  (498) 
[]

>  <ref_mols>  (498) 
c0692a,c1116a

>  <ref_url>  (498) 
None

>  <submitter_name>  (498) 
None

>  <exports>  (498) 
nan

>  <original SMILES>  (498) 
Cc1c(F)ccc(N)c1NC(=O)[C@@H]1OCCNC1=O

>  <method>  (498) 
None

>  <submitter_email>  (498) 
None

>  <HIPPO ID>  (498) 
114703

$$$$
KPJAMMCWGBMHOE-JTQLQIEISA-N
     RDKit          3D

 19 20  0  0  0  0  0  0  0  0999 V2000
   15.9899   11.3115   13.3140 C   0  0  0  0  0  0  0  0  0  0  0  0
   15.7566   10.3515   12.1933 C   0  0  0  0  0  0  0  0  0  0  0  0
   14.8201    9.3506   12.4439 C   0  0  0  0  0  0  0  0  0  0  0  0
   14.1287    9.4234   13.5826 F   0  0  0  0  0  0  0  0  0  0  0  0
   14.5386    8.3184   11.5592 C   0  0  0  0  0  0  0  0  0  0  0  0
   15.0495    8.3944   10.2880 C   0  0  0  0  0  0  0  0  0  0  0  0
   15.9119    9.4391    9.9634 C   0  0  0  0  0  0  0  0  0  0  0  0
   16.3681    9.4550    8.6482 N   0  0  0  0  0  0  0  0  0  0  0  0
   16.3896   10.3424   10.9491 C   0  0  0  0  0  0  0  0  0  0  0  0
   17.5795   11.0577   10.6458 N   0  0  0  0  0  0  0  0  0  0  0  0
   18.0893   12.2064   11.2341 C   0  0  0  0  0  0  0  0  0  0  0  0
   17.3912   13.0506   11.7910 O   0  0  0  0  0  0  0  0  0  0  0  0
   19.6305   12.3218   11.1965 C   0  0  1  0  0  0  0  0  0  0  0  0
   20.2202   11.1933   10.5472 O   0  0  0  0  0  0  0  0  0  0  0  0
   21.6400   11.1986   10.7637 C   0  0  0  0  0  0  0  0  0  0  0  0
   22.2881   12.4150   10.1118 C   0  0  0  0  0  0  0  0  0  0  0  0
   21.5327   13.6359   10.3266 N   0  0  0  0  0  0  0  0  0  0  0  0
   20.2157   13.6602   10.7234 C   0  0  0  0  0  0  0  0  0  0  0  0
   19.6360   14.7383   10.7360 O   0  0  0  0  0  0  0  0  0  0  0  0
  1  2  1  0
  2  3  2  0
  3  4  1  0
  3  5  1  0
  5  6  2  0
  6  7  1  0
  7  8  1  0
  7  9  2  0
  9 10  1  0
 10 11  1  0
 11 12  2  0
 13 11  1  6
 13 14  1  0
 14 15  1  0
 15 16  1  0
 16 17  1  0
 17 18  1  0
 18 19  2  0
  9  2  1  0
 18 13  1  0
M  END
>  <ref_pdb>  (499) 
c0270a

>  <inchikey>  (499) 
KPJAMMCWGBMHOE-JTQLQIEISA-N

>  <original ID>  (499) 
KPJAMMCWGBMHOE-JTQLQIEISA-N

>  <generation_date>  (499) 
None

>  <alias>  (499) 
None

>  <tags>  (499) 
[]

>  <ref_mols>  (499) 
c0692a,c1116a

>  <ref_url>  (499) 
None

>  <submitter_name>  (499) 
None

>  <exports>  (499) 
nan

>  <original SMILES>  (499) 
Cc1c(F)ccc(N)c1NC(=O)[C@H]1OCCNC1=O

>  <method>  (499) 
None

>  <submitter_email>  (499) 
None

>  <HIPPO ID>  (499) 
114704

$$$$
WBFQVMYCVKPNJD-JTQLQIEISA-N
     RDKit          3D

 19 20  0  0  0  0  0  0  0  0999 V2000
   14.3938    9.0308   13.5912 C   0  0  0  0  0  0  0  0  0  0  0  0
   14.9405    9.2563   12.2229 C   0  0  0  0  0  0  0  0  0  0  0  0
   14.5624    8.4394   11.1485 C   0  0  0  0  0  0  0  0  0  0  0  0
   13.6379    7.4796   11.3066 F   0  0  0  0  0  0  0  0  0  0  0  0
   15.1030    8.6153    9.8955 C   0  0  0  0  0  0  0  0  0  0  0  0
   16.1358    9.5271    9.7422 C   0  0  0  0  0  0  0  0  0  0  0  0
   16.5496   10.3462   10.8043 C   0  0  0  0  0  0  0  0  0  0  0  0
   17.7534   11.0611   10.6188 N   0  0  0  0  0  0  0  0  0  0  0  0
   18.1778   12.1915   11.2956 C   0  0  0  0  0  0  0  0  0  0  0  0
   17.4078   12.9407   11.8987 O   0  0  0  0  0  0  0  0  0  0  0  0
   19.7027   12.3916   11.2933 C   0  0  1  0  0  0  0  0  0  0  0  0
   20.3362   11.4992   10.3771 O   0  0  0  0  0  0  0  0  0  0  0  0
   21.7628   11.5869   10.5119 C   0  0  0  0  0  0  0  0  0  0  0  0
   22.2477   12.9907   10.1542 C   0  0  0  0  0  0  0  0  0  0  0  0
   21.4348   14.0427   10.7394 N   0  0  0  0  0  0  0  0  0  0  0  0
   20.1591   13.8499   11.2156 C   0  0  0  0  0  0  0  0  0  0  0  0
   19.5159   14.8120   11.6214 O   0  0  0  0  0  0  0  0  0  0  0  0
   15.8543   10.3030   12.0282 C   0  0  0  0  0  0  0  0  0  0  0  0
   16.2449   11.0649   13.1581 N   0  0  0  0  0  0  0  0  0  0  0  0
  1  2  1  0
  2  3  2  0
  3  4  1  0
  3  5  1  0
  5  6  2  0
  6  7  1  0
  7  8  1  0
  8  9  1  0
  9 10  2  0
 11  9  1  6
 11 12  1  0
 12 13  1  0
 13 14  1  0
 14 15  1  0
 15 16  1  0
 16 17  2  0
  7 18  2  0
 18 19  1  0
 18  2  1  0
 16 11  1  0
M  END
>  <ref_pdb>  (500) 
c0270a

>  <inchikey>  (500) 
WBFQVMYCVKPNJD-JTQLQIEISA-N

>  <original ID>  (500) 
WBFQVMYCVKPNJD-JTQLQIEISA-N

>  <generation_date>  (500) 
None

>  <alias>  (500) 
None

>  <tags>  (500) 
[]

>  <ref_mols>  (500) 
c0692a,c1116a

>  <ref_url>  (500) 
None

>  <submitter_name>  (500) 
None

>  <exports>  (500) 
nan

>  <original SMILES>  (500) 
Cc1c(F)ccc(NC(=O)[C@H]2OCCNC2=O)c1N

>  <method>  (500) 
None

>  <submitter_email>  (500) 
None

>  <HIPPO ID>  (500) 
114705

$$$$
VCEMBOZGOBIWCN-SNVBAGLBSA-N
     RDKit          3D

 19 20  0  0  0  0  0  0  0  0999 V2000
   14.3488    9.5868   14.0716 C   0  0  0  0  0  0  0  0  0  0  0  0
   14.9179    9.3802   12.7161 C   0  0  0  0  0  0  0  0  0  0  0  0
   14.5407    8.3427   11.8668 C   0  0  0  0  0  0  0  0  0  0  0  0
   14.9645    8.3577   10.5487 C   0  0  0  0  0  0  0  0  0  0  0  0
   15.8345    9.3558   10.1028 C   0  0  0  0  0  0  0  0  0  0  0  0
   16.2652    9.2905    8.7893 N   0  0  0  0  0  0  0  0  0  0  0  0
   16.3980   10.2505   11.0174 C   0  0  0  0  0  0  0  0  0  0  0  0
   17.5559   10.9711   10.6598 N   0  0  0  0  0  0  0  0  0  0  0  0
   17.9699   12.1473   11.2613 C   0  0  0  0  0  0  0  0  0  0  0  0
   17.1833   12.9174   11.8108 O   0  0  0  0  0  0  0  0  0  0  0  0
   19.4675   12.4708   11.0870 C   0  0  2  0  0  0  0  0  0  0  0  0
   20.1666   11.3168   10.6091 O   0  0  0  0  0  0  0  0  0  0  0  0
   21.5811   11.5502   10.5605 C   0  0  0  0  0  0  0  0  0  0  0  0
   22.1042   11.8214   11.9627 C   0  0  0  0  0  0  0  0  0  0  0  0
   21.3913   12.9112   12.5921 N   0  0  0  0  0  0  0  0  0  0  0  0
   20.0612   13.1575   12.3391 C   0  0  0  0  0  0  0  0  0  0  0  0
   19.4514   13.9556   13.0448 O   0  0  0  0  0  0  0  0  0  0  0  0
   15.8780   10.2908   12.3021 C   0  0  0  0  0  0  0  0  0  0  0  0
   16.3909   11.0916   13.2445 F   0  0  0  0  0  0  0  0  0  0  0  0
  1  2  1  0
  2  3  2  0
  3  4  1  0
  4  5  2  0
  5  6  1  0
  5  7  1  0
  7  8  1  0
  8  9  1  0
  9 10  2  0
 11  9  1  1
 11 12  1  0
 12 13  1  0
 13 14  1  0
 14 15  1  0
 15 16  1  0
 16 17  2  0
  7 18  2  0
 18 19  1  0
 18  2  1  0
 16 11  1  0
M  END
>  <ref_pdb>  (501) 
c0270a

>  <inchikey>  (501) 
VCEMBOZGOBIWCN-SNVBAGLBSA-N

>  <original ID>  (501) 
VCEMBOZGOBIWCN-SNVBAGLBSA-N

>  <generation_date>  (501) 
None

>  <alias>  (501) 
None

>  <tags>  (501) 
[]

>  <ref_mols>  (501) 
c0692a,c1116a

>  <ref_url>  (501) 
None

>  <submitter_name>  (501) 
None

>  <exports>  (501) 
nan

>  <original SMILES>  (501) 
Cc1ccc(N)c(NC(=O)[C@@H]2OCCNC2=O)c1F

>  <method>  (501) 
None

>  <submitter_email>  (501) 
None

>  <HIPPO ID>  (501) 
114706

$$$$
VCEMBOZGOBIWCN-JTQLQIEISA-N
     RDKit          3D

 19 20  0  0  0  0  0  0  0  0999 V2000
   14.3907    9.4285   13.9260 C   0  0  0  0  0  0  0  0  0  0  0  0
   14.9543    9.3087   12.5566 C   0  0  0  0  0  0  0  0  0  0  0  0
   14.5635    8.3335   11.6404 C   0  0  0  0  0  0  0  0  0  0  0  0
   14.9996    8.4204   10.3281 C   0  0  0  0  0  0  0  0  0  0  0  0
   15.8784    9.4357    9.9472 C   0  0  0  0  0  0  0  0  0  0  0  0
   16.2840    9.4485    8.6161 N   0  0  0  0  0  0  0  0  0  0  0  0
   16.4386   10.2861   10.9133 C   0  0  0  0  0  0  0  0  0  0  0  0
   17.6010   11.0343   10.6134 N   0  0  0  0  0  0  0  0  0  0  0  0
   18.0337   12.1584   11.3076 C   0  0  0  0  0  0  0  0  0  0  0  0
   17.2686   12.8950   11.9261 O   0  0  0  0  0  0  0  0  0  0  0  0
   19.5608   12.3718   11.2839 C   0  0  1  0  0  0  0  0  0  0  0  0
   20.2067   11.4873   10.3681 O   0  0  0  0  0  0  0  0  0  0  0  0
   21.6322   11.5616   10.5360 C   0  0  0  0  0  0  0  0  0  0  0  0
   22.1420   12.9667   10.2167 C   0  0  0  0  0  0  0  0  0  0  0  0
   21.3107   14.0187   10.7735 N   0  0  0  0  0  0  0  0  0  0  0  0
   20.0300   13.8275   11.2376 C   0  0  0  0  0  0  0  0  0  0  0  0
   19.3999   14.7887   11.6639 O   0  0  0  0  0  0  0  0  0  0  0  0
   15.9130   10.2457   12.1978 C   0  0  0  0  0  0  0  0  0  0  0  0
   16.4205   10.9899   13.1891 F   0  0  0  0  0  0  0  0  0  0  0  0
  1  2  1  0
  2  3  2  0
  3  4  1  0
  4  5  2  0
  5  6  1  0
  5  7  1  0
  7  8  1  0
  8  9  1  0
  9 10  2  0
 11  9  1  6
 11 12  1  0
 12 13  1  0
 13 14  1  0
 14 15  1  0
 15 16  1  0
 16 17  2  0
  7 18  2  0
 18 19  1  0
 18  2  1  0
 16 11  1  0
M  END
>  <ref_pdb>  (502) 
c0270a

>  <inchikey>  (502) 
VCEMBOZGOBIWCN-JTQLQIEISA-N

>  <original ID>  (502) 
VCEMBOZGOBIWCN-JTQLQIEISA-N

>  <generation_date>  (502) 
None

>  <alias>  (502) 
None

>  <tags>  (502) 
[]

>  <ref_mols>  (502) 
c0692a,c1116a

>  <ref_url>  (502) 
None

>  <submitter_name>  (502) 
None

>  <exports>  (502) 
nan

>  <original SMILES>  (502) 
Cc1ccc(N)c(NC(=O)[C@H]2OCCNC2=O)c1F

>  <method>  (502) 
None

>  <submitter_email>  (502) 
None

>  <HIPPO ID>  (502) 
114707

$$$$
WRFFMIMIHFHOSH-SNVBAGLBSA-N
     RDKit          3D

 19 20  0  0  0  0  0  0  0  0999 V2000
   13.1877    9.1883    9.0152 C   0  0  0  0  0  0  0  0  0  0  0  0
   14.3610    9.7838    9.7216 C   0  0  0  0  0  0  0  0  0  0  0  0
   15.5528    9.1403    9.5179 C   0  0  0  0  0  0  0  0  0  0  0  0
   16.6877    9.6663   10.0820 C   0  0  0  0  0  0  0  0  0  0  0  0
   16.6791   10.7418   10.9489 C   0  0  0  0  0  0  0  0  0  0  0  0
   17.9513   11.2414   11.2326 N   0  0  0  0  0  0  0  0  0  0  0  0
   18.2612   12.5474   11.5370 C   0  0  0  0  0  0  0  0  0  0  0  0
   17.4554   13.3971   11.9012 O   0  0  0  0  0  0  0  0  0  0  0  0
   19.7506   12.8336   11.3039 C   0  0  2  0  0  0  0  0  0  0  0  0
   20.3440   11.6664   10.7017 O   0  0  0  0  0  0  0  0  0  0  0  0
   21.7695   11.8011   10.6291 C   0  0  0  0  0  0  0  0  0  0  0  0
   22.3295   11.9004   12.0422 C   0  0  0  0  0  0  0  0  0  0  0  0
   21.7146   12.9797   12.7883 N   0  0  0  0  0  0  0  0  0  0  0  0
   20.4069   13.3515   12.5868 C   0  0  0  0  0  0  0  0  0  0  0  0
   19.8441   14.1100   13.3699 O   0  0  0  0  0  0  0  0  0  0  0  0
   15.4775   11.2989   11.3204 C   0  0  0  0  0  0  0  0  0  0  0  0
   15.3100   12.0853   12.4768 N   0  0  0  0  0  0  0  0  0  0  0  0
   14.3592   10.8764   10.6094 C   0  0  0  0  0  0  0  0  0  0  0  0
   13.2811   11.6569   10.7614 F   0  0  0  0  0  0  0  0  0  0  0  0
  1  2  1  0
  2  3  2  0
  3  4  1  0
  4  5  2  0
  5  6  1  0
  6  7  1  0
  7  8  2  0
  9  7  1  1
  9 10  1  0
 10 11  1  0
 11 12  1  0
 12 13  1  0
 13 14  1  0
 14 15  2  0
  5 16  1  0
 16 17  1  0
 16 18  2  0
 18 19  1  0
 18  2  1  0
 14  9  1  0
M  END
>  <ref_pdb>  (503) 
c0270a

>  <inchikey>  (503) 
WRFFMIMIHFHOSH-SNVBAGLBSA-N

>  <original ID>  (503) 
WRFFMIMIHFHOSH-SNVBAGLBSA-N

>  <generation_date>  (503) 
None

>  <alias>  (503) 
None

>  <tags>  (503) 
[]

>  <ref_mols>  (503) 
c0692a,c1116a

>  <ref_url>  (503) 
None

>  <submitter_name>  (503) 
None

>  <exports>  (503) 
nan

>  <original SMILES>  (503) 
Cc1ccc(NC(=O)[C@@H]2OCCNC2=O)c(N)c1F

>  <method>  (503) 
None

>  <submitter_email>  (503) 
None

>  <HIPPO ID>  (503) 
114708

$$$$
WRFFMIMIHFHOSH-JTQLQIEISA-N
     RDKit          3D

 19 20  0  0  0  0  0  0  0  0999 V2000
   13.7443    7.1191   11.2162 C   0  0  0  0  0  0  0  0  0  0  0  0
   14.5889    8.3442   11.0383 C   0  0  0  0  0  0  0  0  0  0  0  0
   15.1762    8.5698    9.8101 C   0  0  0  0  0  0  0  0  0  0  0  0
   16.1753    9.5274    9.6873 C   0  0  0  0  0  0  0  0  0  0  0  0
   16.5541   10.3481   10.7588 C   0  0  0  0  0  0  0  0  0  0  0  0
   17.7554   11.0719   10.5993 N   0  0  0  0  0  0  0  0  0  0  0  0
   18.2048   12.1742   11.3076 C   0  0  0  0  0  0  0  0  0  0  0  0
   17.4664   12.9096   11.9639 O   0  0  0  0  0  0  0  0  0  0  0  0
   19.7358   12.3641   11.2546 C   0  0  1  0  0  0  0  0  0  0  0  0
   20.3478   11.2821   10.5420 O   0  0  0  0  0  0  0  0  0  0  0  0
   21.7723   11.3454   10.6957 C   0  0  0  0  0  0  0  0  0  0  0  0
   22.3325   12.6095   10.0513 C   0  0  0  0  0  0  0  0  0  0  0  0
   21.5152   13.7843   10.3010 N   0  0  0  0  0  0  0  0  0  0  0  0
   20.2307   13.7378   10.7906 C   0  0  0  0  0  0  0  0  0  0  0  0
   19.6032   14.7855   10.8831 O   0  0  0  0  0  0  0  0  0  0  0  0
   15.8158   10.2894   11.9423 C   0  0  0  0  0  0  0  0  0  0  0  0
   16.1556   11.0002   13.1205 N   0  0  0  0  0  0  0  0  0  0  0  0
   14.8854    9.2474   12.0635 C   0  0  0  0  0  0  0  0  0  0  0  0
   14.2446    9.1729   13.2335 F   0  0  0  0  0  0  0  0  0  0  0  0
  1  2  1  0
  2  3  2  0
  3  4  1  0
  4  5  2  0
  5  6  1  0
  6  7  1  0
  7  8  2  0
  9  7  1  6
  9 10  1  0
 10 11  1  0
 11 12  1  0
 12 13  1  0
 13 14  1  0
 14 15  2  0
  5 16  1  0
 16 17  1  0
 16 18  2  0
 18 19  1  0
 18  2  1  0
 14  9  1  0
M  END
>  <ref_pdb>  (504) 
c0270a

>  <inchikey>  (504) 
WRFFMIMIHFHOSH-JTQLQIEISA-N

>  <original ID>  (504) 
WRFFMIMIHFHOSH-JTQLQIEISA-N

>  <generation_date>  (504) 
None

>  <alias>  (504) 
None

>  <tags>  (504) 
[]

>  <ref_mols>  (504) 
c0692a,c1116a

>  <ref_url>  (504) 
None

>  <submitter_name>  (504) 
None

>  <exports>  (504) 
nan

>  <original SMILES>  (504) 
Cc1ccc(NC(=O)[C@H]2OCCNC2=O)c(N)c1F

>  <method>  (504) 
None

>  <submitter_email>  (504) 
None

>  <HIPPO ID>  (504) 
114709

$$$$
HUGDDRJIUPSIGR-LLVKDONJSA-N
     RDKit          3D

 19 20  0  0  0  0  0  0  0  0999 V2000
   14.4244    9.7368   14.0342 C   0  0  0  0  0  0  0  0  0  0  0  0
   14.9853    9.5168   12.6767 C   0  0  0  0  0  0  0  0  0  0  0  0
   14.5542    8.5072   11.8241 C   0  0  0  0  0  0  0  0  0  0  0  0
   14.8515    8.5702   10.4636 C   0  0  0  0  0  0  0  0  0  0  0  0
   14.0888    7.6787    9.5319 C   0  0  0  0  0  0  0  0  0  0  0  0
   15.7998    9.4964   10.0144 C   0  0  0  0  0  0  0  0  0  0  0  0
   16.2051    9.4614    8.6776 N   0  0  0  0  0  0  0  0  0  0  0  0
   16.4197   10.3509   10.9397 C   0  0  0  0  0  0  0  0  0  0  0  0
   17.5847   11.0617   10.5980 N   0  0  0  0  0  0  0  0  0  0  0  0
   18.0457   12.1797   11.2787 C   0  0  0  0  0  0  0  0  0  0  0  0
   17.3023   12.8916   11.9533 O   0  0  0  0  0  0  0  0  0  0  0  0
   19.5367   12.5020   11.0701 C   0  0  2  0  0  0  0  0  0  0  0  0
   20.2112   11.3392   10.5786 O   0  0  0  0  0  0  0  0  0  0  0  0
   21.6303   11.5455   10.5339 C   0  0  0  0  0  0  0  0  0  0  0  0
   22.1571   11.7872   11.9403 C   0  0  0  0  0  0  0  0  0  0  0  0
   21.4715   12.8884   12.5783 N   0  0  0  0  0  0  0  0  0  0  0  0
   20.1541   13.1811   12.3176 C   0  0  0  0  0  0  0  0  0  0  0  0
   19.5700   14.0066   13.0139 O   0  0  0  0  0  0  0  0  0  0  0  0
   15.9303   10.4233   12.2339 C   0  0  0  0  0  0  0  0  0  0  0  0
  1  2  1  0
  2  3  2  0
  3  4  1  0
  4  5  1  0
  4  6  2  0
  6  7  1  0
  6  8  1  0
  8  9  1  0
  9 10  1  0
 10 11  2  0
 12 10  1  1
 12 13  1  0
 13 14  1  0
 14 15  1  0
 15 16  1  0
 16 17  1  0
 17 18  2  0
  8 19  2  0
 19  2  1  0
 17 12  1  0
M  END
>  <ref_pdb>  (505) 
c0270a

>  <inchikey>  (505) 
HUGDDRJIUPSIGR-LLVKDONJSA-N

>  <original ID>  (505) 
HUGDDRJIUPSIGR-LLVKDONJSA-N

>  <generation_date>  (505) 
None

>  <alias>  (505) 
None

>  <tags>  (505) 
[]

>  <ref_mols>  (505) 
c0692a,c1116a

>  <ref_url>  (505) 
None

>  <submitter_name>  (505) 
None

>  <exports>  (505) 
nan

>  <original SMILES>  (505) 
Cc1cc(C)c(N)c(NC(=O)[C@@H]2OCCNC2=O)c1

>  <method>  (505) 
None

>  <submitter_email>  (505) 
None

>  <HIPPO ID>  (505) 
114712

$$$$
HUGDDRJIUPSIGR-NSHDSACASA-N
     RDKit          3D

 19 20  0  0  0  0  0  0  0  0999 V2000
   14.4264    9.7995   14.0313 C   0  0  0  0  0  0  0  0  0  0  0  0
   14.9967    9.5798   12.6775 C   0  0  0  0  0  0  0  0  0  0  0  0
   14.5740    8.5661   11.8270 C   0  0  0  0  0  0  0  0  0  0  0  0
   14.8759    8.6300   10.4693 C   0  0  0  0  0  0  0  0  0  0  0  0
   14.1222    7.7331    9.5334 C   0  0  0  0  0  0  0  0  0  0  0  0
   15.8254    9.5590   10.0236 C   0  0  0  0  0  0  0  0  0  0  0  0
   16.2244    9.5115    8.6867 N   0  0  0  0  0  0  0  0  0  0  0  0
   16.4485   10.4144   10.9497 C   0  0  0  0  0  0  0  0  0  0  0  0
   17.6305   11.1151   10.6235 N   0  0  0  0  0  0  0  0  0  0  0  0
   18.1367   12.1883   11.3490 C   0  0  0  0  0  0  0  0  0  0  0  0
   17.4337   12.9000   12.0668 O   0  0  0  0  0  0  0  0  0  0  0  0
   19.6632   12.3676   11.2749 C   0  0  1  0  0  0  0  0  0  0  0  0
   20.2707   11.4764   10.3442 O   0  0  0  0  0  0  0  0  0  0  0  0
   21.7014   11.5381   10.4757 C   0  0  0  0  0  0  0  0  0  0  0  0
   22.2187   12.9389   10.1480 C   0  0  0  0  0  0  0  0  0  0  0  0
   21.4152   13.9992   10.7295 N   0  0  0  0  0  0  0  0  0  0  0  0
   20.1390   13.8214   11.2095 C   0  0  0  0  0  0  0  0  0  0  0  0
   19.5128   14.7894   11.6268 O   0  0  0  0  0  0  0  0  0  0  0  0
   15.9443   10.4875   12.2387 C   0  0  0  0  0  0  0  0  0  0  0  0
  1  2  1  0
  2  3  2  0
  3  4  1  0
  4  5  1  0
  4  6  2  0
  6  7  1  0
  6  8  1  0
  8  9  1  0
  9 10  1  0
 10 11  2  0
 12 10  1  6
 12 13  1  0
 13 14  1  0
 14 15  1  0
 15 16  1  0
 16 17  1  0
 17 18  2  0
  8 19  2  0
 19  2  1  0
 17 12  1  0
M  END
>  <ref_pdb>  (506) 
c0270a

>  <inchikey>  (506) 
HUGDDRJIUPSIGR-NSHDSACASA-N

>  <original ID>  (506) 
HUGDDRJIUPSIGR-NSHDSACASA-N

>  <generation_date>  (506) 
None

>  <alias>  (506) 
None

>  <tags>  (506) 
[]

>  <ref_mols>  (506) 
c0692a,c1116a

>  <ref_url>  (506) 
None

>  <submitter_name>  (506) 
None

>  <exports>  (506) 
nan

>  <original SMILES>  (506) 
Cc1cc(C)c(N)c(NC(=O)[C@H]2OCCNC2=O)c1

>  <method>  (506) 
None

>  <submitter_email>  (506) 
None

>  <HIPPO ID>  (506) 
114713

$$$$
BFYRANNQAZPQSY-CQSZACIVSA-N
     RDKit          3D

 19 21  0  0  0  0  0  0  0  0999 V2000
   17.2453   13.4549   12.5824 C   0  0  0  0  0  0  0  0  0  0  0  0
   15.9216   13.1962   13.3106 C   0  0  2  0  0  0  0  0  0  0  0  0
   15.2687   11.9633   12.5745 C   0  0  0  0  0  0  0  0  0  0  0  0
   14.5430   12.1690   11.5910 O   0  0  0  0  0  0  0  0  0  0  0  0
   15.6119   10.6678   12.9930 N   0  0  0  0  0  0  0  0  0  0  0  0
   15.6360   10.3736   14.4290 C   0  0  0  0  0  0  0  0  0  0  0  0
   15.7883    8.8967   14.7849 C   0  0  0  0  0  0  0  0  0  0  0  0
   14.8359    8.0746   14.0527 N   0  0  0  0  0  0  0  0  0  0  0  0
   14.9740    8.2918   12.6562 C   0  0  0  0  0  0  0  0  0  0  0  0
   14.5755    7.2669   11.7853 C   0  0  0  0  0  0  0  0  0  0  0  0
   14.6017    7.4514   10.4054 C   0  0  0  0  0  0  0  0  0  0  0  0
   15.0486    8.6546    9.8778 C   0  0  0  0  0  0  0  0  0  0  0  0
   15.4226    9.6912   10.7285 C   0  0  0  0  0  0  0  0  0  0  0  0
   15.3313    9.5521   12.1222 C   0  0  0  0  0  0  0  0  0  0  0  0
   14.8919   14.3279   13.1131 C   0  0  0  0  0  0  0  0  0  0  0  0
   15.2445   15.6334   13.6987 N   0  0  0  0  0  0  0  0  0  0  0  0
   15.4578   15.4197   15.1324 C   0  0  0  0  0  0  0  0  0  0  0  0
   16.4986   14.3232   15.3591 C   0  0  0  0  0  0  0  0  0  0  0  0
   16.1629   13.0760   14.7194 O   0  0  0  0  0  0  0  0  0  0  0  0
  2  1  1  6
  2  3  1  0
  3  4  2  0
  3  5  1  0
  5  6  1  0
  6  7  1  0
  7  8  1  0
  8  9  1  0
  9 10  2  0
 10 11  1  0
 11 12  2  0
 12 13  1  0
 13 14  2  0
  2 15  1  0
 15 16  1  0
 16 17  1  0
 17 18  1  0
 18 19  1  0
 19  2  1  0
 14  5  1  0
 14  9  1  0
M  END
>  <ref_pdb>  (507) 
c0270a

>  <inchikey>  (507) 
BFYRANNQAZPQSY-CQSZACIVSA-N

>  <original ID>  (507) 
BFYRANNQAZPQSY-CQSZACIVSA-N

>  <generation_date>  (507) 
None

>  <alias>  (507) 
None

>  <tags>  (507) 
[]

>  <ref_mols>  (507) 
c0692a,c1116a

>  <ref_url>  (507) 
None

>  <submitter_name>  (507) 
None

>  <exports>  (507) 
nan

>  <original SMILES>  (507) 
C[C@]1(C(=O)N2CCNc3ccccc32)CNCCO1

>  <method>  (507) 
None

>  <submitter_email>  (507) 
None

>  <HIPPO ID>  (507) 
114742

$$$$
BFYRANNQAZPQSY-AWEZNQCLSA-N
     RDKit          3D

 19 21  0  0  0  0  0  0  0  0999 V2000
   13.9351   13.6640   12.2471 C   0  0  0  0  0  0  0  0  0  0  0  0
   14.9596   12.6934   12.7638 C   0  0  1  0  0  0  0  0  0  0  0  0
   14.4566   11.4334   11.9445 C   0  0  0  0  0  0  0  0  0  0  0  0
   14.2330   11.5637   10.7228 O   0  0  0  0  0  0  0  0  0  0  0  0
   14.3532   10.1328   12.5370 N   0  0  0  0  0  0  0  0  0  0  0  0
   14.8166    9.9441   13.9003 C   0  0  0  0  0  0  0  0  0  0  0  0
   16.3441   10.0592   13.9360 C   0  0  0  0  0  0  0  0  0  0  0  0
   16.8995   10.4269   12.6106 N   0  0  0  0  0  0  0  0  0  0  0  0
   16.3734    9.6962   11.5305 C   0  0  0  0  0  0  0  0  0  0  0  0
   16.9060    9.7430   10.2665 C   0  0  0  0  0  0  0  0  0  0  0  0
   16.1680    9.2116    9.2140 C   0  0  0  0  0  0  0  0  0  0  0  0
   14.9677    8.5466    9.4254 C   0  0  0  0  0  0  0  0  0  0  0  0
   14.4443    8.4830   10.6931 C   0  0  0  0  0  0  0  0  0  0  0  0
   15.0681    9.2246   11.6755 C   0  0  0  0  0  0  0  0  0  0  0  0
   16.3811   13.1922   12.3730 C   0  0  0  0  0  0  0  0  0  0  0  0
   16.6826   14.5662   12.8391 N   0  0  0  0  0  0  0  0  0  0  0  0
   16.4832   14.6221   14.2934 C   0  0  0  0  0  0  0  0  0  0  0  0
   15.1823   13.9645   14.7932 C   0  0  0  0  0  0  0  0  0  0  0  0
   14.9184   12.6825   14.1974 O   0  0  0  0  0  0  0  0  0  0  0  0
  2  1  1  6
  2  3  1  0
  3  4  2  0
  3  5  1  0
  5  6  1  0
  6  7  1  0
  7  8  1  0
  8  9  1  0
  9 10  2  0
 10 11  1  0
 11 12  2  0
 12 13  1  0
 13 14  2  0
  2 15  1  0
 15 16  1  0
 16 17  1  0
 17 18  1  0
 18 19  1  0
 19  2  1  0
 14  5  1  0
 14  9  1  0
M  END
>  <ref_pdb>  (508) 
c0270a

>  <inchikey>  (508) 
BFYRANNQAZPQSY-AWEZNQCLSA-N

>  <original ID>  (508) 
BFYRANNQAZPQSY-AWEZNQCLSA-N

>  <generation_date>  (508) 
None

>  <alias>  (508) 
None

>  <tags>  (508) 
[]

>  <ref_mols>  (508) 
c0692a,c1116a

>  <ref_url>  (508) 
None

>  <submitter_name>  (508) 
None

>  <exports>  (508) 
nan

>  <original SMILES>  (508) 
C[C@@]1(C(=O)N2CCNc3ccccc32)CNCCO1

>  <method>  (508) 
None

>  <submitter_email>  (508) 
None

>  <HIPPO ID>  (508) 
114743

$$$$
JRFUVFTWTHELSP-ZDUSSCGKSA-N
     RDKit          3D

 19 20  0  0  0  0  0  0  0  0999 V2000
   14.8738    9.8832    8.5879 C   0  0  0  0  0  0  0  0  0  0  0  0
   16.1763    9.3494    8.9595 N   0  0  0  0  0  0  0  0  0  0  0  0
   16.1679    9.2912   10.3689 C   0  0  0  0  0  0  0  0  0  0  0  0
   15.2986    8.3373   10.9300 C   0  0  0  0  0  0  0  0  0  0  0  0
   14.8248    8.5192   12.2101 C   0  0  0  0  0  0  0  0  0  0  0  0
   15.1858    9.6792   12.8783 C   0  0  0  0  0  0  0  0  0  0  0  0
   14.3811   10.1630   14.4818 Br  0  0  0  0  0  0  0  0  0  0  0  0
   16.1380   10.5588   12.3855 C   0  0  0  0  0  0  0  0  0  0  0  0
   16.6936   10.3458   11.1403 C   0  0  0  0  0  0  0  0  0  0  0  0
   17.8274   11.0803   10.6977 N   0  0  0  0  0  0  0  0  0  0  0  0
   18.3266   12.2195   11.3251 C   0  0  0  0  0  0  0  0  0  0  0  0
   17.5772   12.9778   11.9527 O   0  0  0  0  0  0  0  0  0  0  0  0
   19.8804   12.5260   11.2468 C   0  0  2  0  0  0  0  0  0  0  0  0
   20.0996   13.9119   10.6301 C   0  0  0  0  0  0  0  0  0  0  0  0
   20.6995   11.3884   10.6067 C   0  0  0  0  0  0  0  0  0  0  0  0
   22.0951   11.7618   10.3741 N   0  0  0  0  0  0  0  0  0  0  0  0
   22.6594   12.4421   11.5451 C   0  0  0  0  0  0  0  0  0  0  0  0
   21.7614   12.4129   12.7950 C   0  0  0  0  0  0  0  0  0  0  0  0
   20.3640   12.7097   12.5987 O   0  0  0  0  0  0  0  0  0  0  0  0
  1  2  1  0
  2  3  1  0
  3  4  2  0
  4  5  1  0
  5  6  2  0
  6  7  1  0
  6  8  1  0
  8  9  2  0
  9 10  1  0
 10 11  1  0
 11 12  2  0
 11 13  1  0
 13 14  1  6
 13 15  1  0
 15 16  1  0
 16 17  1  0
 17 18  1  0
 18 19  1  0
  9  3  1  0
 19 13  1  0
M  END
>  <ref_pdb>  (509) 
c0270a

>  <inchikey>  (509) 
JRFUVFTWTHELSP-ZDUSSCGKSA-N

>  <original ID>  (509) 
JRFUVFTWTHELSP-ZDUSSCGKSA-N

>  <generation_date>  (509) 
None

>  <alias>  (509) 
None

>  <tags>  (509) 
[]

>  <ref_mols>  (509) 
c0692a,c1116a

>  <ref_url>  (509) 
None

>  <submitter_name>  (509) 
None

>  <exports>  (509) 
nan

>  <original SMILES>  (509) 
CNc1ccc(Br)cc1NC(=O)[C@]1(C)CNCCO1

>  <method>  (509) 
None

>  <submitter_email>  (509) 
None

>  <HIPPO ID>  (509) 
114758

$$$$
JRFUVFTWTHELSP-CYBMUJFWSA-N
     RDKit          3D

 19 20  0  0  0  0  0  0  0  0999 V2000
   15.9576    9.0641    8.6208 C   0  0  0  0  0  0  0  0  0  0  0  0
   15.5441   10.2996    9.2184 N   0  0  0  0  0  0  0  0  0  0  0  0
   15.5407   10.0590   10.6010 C   0  0  0  0  0  0  0  0  0  0  0  0
   14.7585    9.0257   11.1330 C   0  0  0  0  0  0  0  0  0  0  0  0
   14.6784    8.8695   12.4960 C   0  0  0  0  0  0  0  0  0  0  0  0
   15.2562    9.8432   13.2852 C   0  0  0  0  0  0  0  0  0  0  0  0
   14.8150    9.9657   15.0806 Br  0  0  0  0  0  0  0  0  0  0  0  0
   16.1387   10.7807   12.7773 C   0  0  0  0  0  0  0  0  0  0  0  0
   16.3709   10.8169   11.4204 C   0  0  0  0  0  0  0  0  0  0  0  0
   17.4868   11.4891   10.8641 N   0  0  0  0  0  0  0  0  0  0  0  0
   18.1026   12.5519   11.4856 C   0  0  0  0  0  0  0  0  0  0  0  0
   17.4577   13.2729   12.2582 O   0  0  0  0  0  0  0  0  0  0  0  0
   19.6318   12.8405   11.2195 C   0  0  1  0  0  0  0  0  0  0  0  0
   20.1250   13.4567   12.5442 C   0  0  0  0  0  0  0  0  0  0  0  0
   20.4066   11.5544   10.8676 C   0  0  0  0  0  0  0  0  0  0  0  0
   21.8603   11.7408   10.8254 N   0  0  0  0  0  0  0  0  0  0  0  0
   22.2236   12.8806    9.9733 C   0  0  0  0  0  0  0  0  0  0  0  0
   21.2877   14.1093   10.0405 C   0  0  0  0  0  0  0  0  0  0  0  0
   19.8852   13.7978   10.1814 O   0  0  0  0  0  0  0  0  0  0  0  0
  1  2  1  0
  2  3  1  0
  3  4  2  0
  4  5  1  0
  5  6  2  0
  6  7  1  0
  6  8  1  0
  8  9  2  0
  9 10  1  0
 10 11  1  0
 11 12  2  0
 11 13  1  0
 13 14  1  1
 13 15  1  0
 15 16  1  0
 16 17  1  0
 17 18  1  0
 18 19  1  0
  9  3  1  0
 19 13  1  0
M  END
>  <ref_pdb>  (510) 
c0270a

>  <inchikey>  (510) 
JRFUVFTWTHELSP-CYBMUJFWSA-N

>  <original ID>  (510) 
JRFUVFTWTHELSP-CYBMUJFWSA-N

>  <generation_date>  (510) 
None

>  <alias>  (510) 
None

>  <tags>  (510) 
[]

>  <ref_mols>  (510) 
c0692a,c1116a

>  <ref_url>  (510) 
None

>  <submitter_name>  (510) 
None

>  <exports>  (510) 
nan

>  <original SMILES>  (510) 
CNc1ccc(Br)cc1NC(=O)[C@@]1(C)CNCCO1

>  <method>  (510) 
None

>  <submitter_email>  (510) 
None

>  <HIPPO ID>  (510) 
114759

$$$$
JDHHJVUQTVVILY-ZDUSSCGKSA-N
     RDKit          3D

 19 20  0  0  0  0  0  0  0  0999 V2000
   16.0385   11.4550   13.3609 C   0  0  0  0  0  0  0  0  0  0  0  0
   15.8209   10.4550   12.2738 C   0  0  0  0  0  0  0  0  0  0  0  0
   14.8558    9.4831   12.5455 C   0  0  0  0  0  0  0  0  0  0  0  0
   14.1147    9.6336   13.6453 F   0  0  0  0  0  0  0  0  0  0  0  0
   14.5891    8.4074   11.7126 C   0  0  0  0  0  0  0  0  0  0  0  0
   15.1276    8.4181   10.4533 C   0  0  0  0  0  0  0  0  0  0  0  0
   16.0359    9.4211   10.1050 C   0  0  0  0  0  0  0  0  0  0  0  0
   16.3127    9.5081    8.7548 N   0  0  0  0  0  0  0  0  0  0  0  0
   16.4785   10.3986   11.0419 C   0  0  0  0  0  0  0  0  0  0  0  0
   17.6857   11.1150   10.7280 N   0  0  0  0  0  0  0  0  0  0  0  0
   18.1441   12.3153   11.2654 C   0  0  0  0  0  0  0  0  0  0  0  0
   17.3614   13.1523   11.7258 O   0  0  0  0  0  0  0  0  0  0  0  0
   19.7108   12.6103   11.2829 C   0  0  2  0  0  0  0  0  0  0  0  0
   20.0612   13.9206   10.5717 C   0  0  0  0  0  0  0  0  0  0  0  0
   20.5514   11.4239   10.7762 C   0  0  0  0  0  0  0  0  0  0  0  0
   21.9907   11.6927   10.8433 N   0  0  0  0  0  0  0  0  0  0  0  0
   22.3428   11.9620   12.2455 C   0  0  0  0  0  0  0  0  0  0  0  0
   21.4621   13.0405   12.8992 C   0  0  0  0  0  0  0  0  0  0  0  0
   20.0524   12.8423   12.6728 O   0  0  0  0  0  0  0  0  0  0  0  0
  1  2  1  0
  2  3  2  0
  3  4  1  0
  3  5  1  0
  5  6  2  0
  6  7  1  0
  7  8  1  0
  7  9  2  0
  9 10  1  0
 10 11  1  0
 11 12  2  0
 11 13  1  0
 13 14  1  6
 13 15  1  0
 15 16  1  0
 16 17  1  0
 17 18  1  0
 18 19  1  0
  9  2  1  0
 19 13  1  0
M  END
>  <ref_pdb>  (511) 
c0270a

>  <inchikey>  (511) 
JDHHJVUQTVVILY-ZDUSSCGKSA-N

>  <original ID>  (511) 
JDHHJVUQTVVILY-ZDUSSCGKSA-N

>  <generation_date>  (511) 
None

>  <alias>  (511) 
None

>  <tags>  (511) 
[]

>  <ref_mols>  (511) 
c0692a,c1116a

>  <ref_url>  (511) 
None

>  <submitter_name>  (511) 
None

>  <exports>  (511) 
nan

>  <original SMILES>  (511) 
Cc1c(F)ccc(N)c1NC(=O)[C@]1(C)CNCCO1

>  <method>  (511) 
None

>  <submitter_email>  (511) 
None

>  <HIPPO ID>  (511) 
114858

$$$$
JDHHJVUQTVVILY-CYBMUJFWSA-N
     RDKit          3D

 19 20  0  0  0  0  0  0  0  0999 V2000
   16.0916   11.2428   13.3215 C   0  0  0  0  0  0  0  0  0  0  0  0
   15.8260   10.3182   12.1777 C   0  0  0  0  0  0  0  0  0  0  0  0
   14.8553    9.3462   12.4191 C   0  0  0  0  0  0  0  0  0  0  0  0
   14.1635    9.4332   13.5569 F   0  0  0  0  0  0  0  0  0  0  0  0
   14.5439    8.3325   11.5259 C   0  0  0  0  0  0  0  0  0  0  0  0
   15.0484    8.4145   10.2533 C   0  0  0  0  0  0  0  0  0  0  0  0
   15.9255    9.4495    9.9313 C   0  0  0  0  0  0  0  0  0  0  0  0
   16.3524    9.4739    8.6088 N   0  0  0  0  0  0  0  0  0  0  0  0
   16.4384   10.3282   10.9207 C   0  0  0  0  0  0  0  0  0  0  0  0
   17.6267   11.0591   10.6011 N   0  0  0  0  0  0  0  0  0  0  0  0
   18.0477   12.2525   11.1609 C   0  0  0  0  0  0  0  0  0  0  0  0
   17.2429   13.0434   11.6661 O   0  0  0  0  0  0  0  0  0  0  0  0
   19.5944   12.6266   11.1188 C   0  0  1  0  0  0  0  0  0  0  0  0
   19.8507   13.2695   12.4962 C   0  0  0  0  0  0  0  0  0  0  0  0
   20.4897   11.3933   10.8581 C   0  0  0  0  0  0  0  0  0  0  0  0
   21.9260   11.6734   10.9639 N   0  0  0  0  0  0  0  0  0  0  0  0
   22.2955   12.7978   10.0966 C   0  0  0  0  0  0  0  0  0  0  0  0
   21.3322   13.9950   10.1906 C   0  0  0  0  0  0  0  0  0  0  0  0
   19.9358   13.6230   10.1356 O   0  0  0  0  0  0  0  0  0  0  0  0
  1  2  1  0
  2  3  2  0
  3  4  1  0
  3  5  1  0
  5  6  2  0
  6  7  1  0
  7  8  1  0
  7  9  2  0
  9 10  1  0
 10 11  1  0
 11 12  2  0
 11 13  1  0
 13 14  1  1
 13 15  1  0
 15 16  1  0
 16 17  1  0
 17 18  1  0
 18 19  1  0
  9  2  1  0
 19 13  1  0
M  END
>  <ref_pdb>  (512) 
c0270a

>  <inchikey>  (512) 
JDHHJVUQTVVILY-CYBMUJFWSA-N

>  <original ID>  (512) 
JDHHJVUQTVVILY-CYBMUJFWSA-N

>  <generation_date>  (512) 
None

>  <alias>  (512) 
None

>  <tags>  (512) 
[]

>  <ref_mols>  (512) 
c0692a,c1116a

>  <ref_url>  (512) 
None

>  <submitter_name>  (512) 
None

>  <exports>  (512) 
nan

>  <original SMILES>  (512) 
Cc1c(F)ccc(N)c1NC(=O)[C@@]1(C)CNCCO1

>  <method>  (512) 
None

>  <submitter_email>  (512) 
None

>  <HIPPO ID>  (512) 
114859

$$$$
ADVPDHLWZCQGQM-CYBMUJFWSA-N
     RDKit          3D

 19 20  0  0  0  0  0  0  0  0999 V2000
   14.4234    9.2011   13.5757 C   0  0  0  0  0  0  0  0  0  0  0  0
   15.0060    9.3629   12.2127 C   0  0  0  0  0  0  0  0  0  0  0  0
   14.6167    8.5267   11.1580 C   0  0  0  0  0  0  0  0  0  0  0  0
   13.6842    7.5780   11.3349 F   0  0  0  0  0  0  0  0  0  0  0  0
   15.1641    8.6643    9.9043 C   0  0  0  0  0  0  0  0  0  0  0  0
   16.2103    9.5587    9.7317 C   0  0  0  0  0  0  0  0  0  0  0  0
   16.6503   10.3923   10.7746 C   0  0  0  0  0  0  0  0  0  0  0  0
   17.8620   11.1059   10.5508 N   0  0  0  0  0  0  0  0  0  0  0  0
   18.2695   12.2660   11.1817 C   0  0  0  0  0  0  0  0  0  0  0  0
   17.4631   12.9981   11.7731 O   0  0  0  0  0  0  0  0  0  0  0  0
   19.7871   12.6871   11.0849 C   0  0  1  0  0  0  0  0  0  0  0  0
   20.0852   13.3997   12.4175 C   0  0  0  0  0  0  0  0  0  0  0  0
   20.7271   11.4796   10.8576 C   0  0  0  0  0  0  0  0  0  0  0  0
   22.1461   11.8540   10.8445 N   0  0  0  0  0  0  0  0  0  0  0  0
   22.3940   12.9252    9.8717 C   0  0  0  0  0  0  0  0  0  0  0  0
   21.3703   14.0768    9.9302 C   0  0  0  0  0  0  0  0  0  0  0  0
   19.9993   13.6409   10.0215 O   0  0  0  0  0  0  0  0  0  0  0  0
   15.9540   10.3794   11.9998 C   0  0  0  0  0  0  0  0  0  0  0  0
   16.3601   11.1528   13.1172 N   0  0  0  0  0  0  0  0  0  0  0  0
  1  2  1  0
  2  3  2  0
  3  4  1  0
  3  5  1  0
  5  6  2  0
  6  7  1  0
  7  8  1  0
  8  9  1  0
  9 10  2  0
  9 11  1  0
 11 12  1  1
 11 13  1  0
 13 14  1  0
 14 15  1  0
 15 16  1  0
 16 17  1  0
  7 18  2  0
 18 19  1  0
 18  2  1  0
 17 11  1  0
M  END
>  <ref_pdb>  (513) 
c0270a

>  <inchikey>  (513) 
ADVPDHLWZCQGQM-CYBMUJFWSA-N

>  <original ID>  (513) 
ADVPDHLWZCQGQM-CYBMUJFWSA-N

>  <generation_date>  (513) 
None

>  <alias>  (513) 
None

>  <tags>  (513) 
[]

>  <ref_mols>  (513) 
c0692a,c1116a

>  <ref_url>  (513) 
None

>  <submitter_name>  (513) 
None

>  <exports>  (513) 
nan

>  <original SMILES>  (513) 
Cc1c(F)ccc(NC(=O)[C@@]2(C)CNCCO2)c1N

>  <method>  (513) 
None

>  <submitter_email>  (513) 
None

>  <HIPPO ID>  (513) 
114860

$$$$
KFNQCOBLGDSGON-ZDUSSCGKSA-N
     RDKit          3D

 19 20  0  0  0  0  0  0  0  0999 V2000
   14.4159    9.7143   13.9343 C   0  0  0  0  0  0  0  0  0  0  0  0
   15.0285    9.5112   12.5958 C   0  0  0  0  0  0  0  0  0  0  0  0
   14.6327    8.5075   11.7158 C   0  0  0  0  0  0  0  0  0  0  0  0
   15.0766    8.5448   10.4073 C   0  0  0  0  0  0  0  0  0  0  0  0
   15.9725    9.5360    9.9990 C   0  0  0  0  0  0  0  0  0  0  0  0
   16.3326    9.5026    8.6570 N   0  0  0  0  0  0  0  0  0  0  0  0
   16.5677   10.3975   10.9414 C   0  0  0  0  0  0  0  0  0  0  0  0
   17.7651   11.1114   10.6265 N   0  0  0  0  0  0  0  0  0  0  0  0
   18.2138   12.2538   11.2927 C   0  0  0  0  0  0  0  0  0  0  0  0
   17.4156   13.0242   11.8377 O   0  0  0  0  0  0  0  0  0  0  0  0
   19.7736   12.5736   11.3084 C   0  0  2  0  0  0  0  0  0  0  0  0
   20.0786   13.8964   10.6043 C   0  0  0  0  0  0  0  0  0  0  0  0
   20.6152   11.4007   10.7704 C   0  0  0  0  0  0  0  0  0  0  0  0
   22.0555   11.6685   10.8224 N   0  0  0  0  0  0  0  0  0  0  0  0
   22.4216   11.8978   12.2283 C   0  0  0  0  0  0  0  0  0  0  0  0
   21.5585   12.9775   12.8996 C   0  0  0  0  0  0  0  0  0  0  0  0
   20.1447   12.7876   12.6931 O   0  0  0  0  0  0  0  0  0  0  0  0
   16.0267   10.4043   12.2214 C   0  0  0  0  0  0  0  0  0  0  0  0
   16.5398   11.1641   13.1963 F   0  0  0  0  0  0  0  0  0  0  0  0
  1  2  1  0
  2  3  2  0
  3  4  1  0
  4  5  2  0
  5  6  1  0
  5  7  1  0
  7  8  1  0
  8  9  1  0
  9 10  2  0
  9 11  1  0
 11 12  1  6
 11 13  1  0
 13 14  1  0
 14 15  1  0
 15 16  1  0
 16 17  1  0
  7 18  2  0
 18 19  1  0
 18  2  1  0
 17 11  1  0
M  END
>  <ref_pdb>  (514) 
c0270a

>  <inchikey>  (514) 
KFNQCOBLGDSGON-ZDUSSCGKSA-N

>  <original ID>  (514) 
KFNQCOBLGDSGON-ZDUSSCGKSA-N

>  <generation_date>  (514) 
None

>  <alias>  (514) 
None

>  <tags>  (514) 
[]

>  <ref_mols>  (514) 
c0692a,c1116a

>  <ref_url>  (514) 
None

>  <submitter_name>  (514) 
None

>  <exports>  (514) 
nan

>  <original SMILES>  (514) 
Cc1ccc(N)c(NC(=O)[C@]2(C)CNCCO2)c1F

>  <method>  (514) 
None

>  <submitter_email>  (514) 
None

>  <HIPPO ID>  (514) 
114861

$$$$
KFNQCOBLGDSGON-CYBMUJFWSA-N
     RDKit          3D

 19 20  0  0  0  0  0  0  0  0999 V2000
   14.4267    9.6464   13.8990 C   0  0  0  0  0  0  0  0  0  0  0  0
   15.0223    9.4485   12.5517 C   0  0  0  0  0  0  0  0  0  0  0  0
   14.6132    8.4517   11.6687 C   0  0  0  0  0  0  0  0  0  0  0  0
   15.0461    8.4917   10.3549 C   0  0  0  0  0  0  0  0  0  0  0  0
   15.9413    9.4806    9.9433 C   0  0  0  0  0  0  0  0  0  0  0  0
   16.3070    9.4620    8.6016 N   0  0  0  0  0  0  0  0  0  0  0  0
   16.5411   10.3370   10.8823 C   0  0  0  0  0  0  0  0  0  0  0  0
   17.7217   11.0616   10.5452 N   0  0  0  0  0  0  0  0  0  0  0  0
   18.1303   12.2263   11.1782 C   0  0  0  0  0  0  0  0  0  0  0  0
   17.3166   12.9586   11.7541 O   0  0  0  0  0  0  0  0  0  0  0  0
   19.6568   12.6541   11.0891 C   0  0  1  0  0  0  0  0  0  0  0  0
   19.9354   13.3536   12.4331 C   0  0  0  0  0  0  0  0  0  0  0  0
   20.5920   11.4447   10.8540 C   0  0  0  0  0  0  0  0  0  0  0  0
   22.0161   11.7959   10.8902 N   0  0  0  0  0  0  0  0  0  0  0  0
   22.3100   12.8937    9.9616 C   0  0  0  0  0  0  0  0  0  0  0  0
   21.2907   14.0494   10.0091 C   0  0  0  0  0  0  0  0  0  0  0  0
   19.9140   13.6189   10.0468 O   0  0  0  0  0  0  0  0  0  0  0  0
   16.0154   10.3423   12.1690 C   0  0  0  0  0  0  0  0  0  0  0  0
   16.5363   11.1059   13.1381 F   0  0  0  0  0  0  0  0  0  0  0  0
  1  2  1  0
  2  3  2  0
  3  4  1  0
  4  5  2  0
  5  6  1  0
  5  7  1  0
  7  8  1  0
  8  9  1  0
  9 10  2  0
  9 11  1  0
 11 12  1  1
 11 13  1  0
 13 14  1  0
 14 15  1  0
 15 16  1  0
 16 17  1  0
  7 18  2  0
 18 19  1  0
 18  2  1  0
 17 11  1  0
M  END
>  <ref_pdb>  (515) 
c0270a

>  <inchikey>  (515) 
KFNQCOBLGDSGON-CYBMUJFWSA-N

>  <original ID>  (515) 
KFNQCOBLGDSGON-CYBMUJFWSA-N

>  <generation_date>  (515) 
None

>  <alias>  (515) 
None

>  <tags>  (515) 
[]

>  <ref_mols>  (515) 
c0692a,c1116a

>  <ref_url>  (515) 
None

>  <submitter_name>  (515) 
None

>  <exports>  (515) 
nan

>  <original SMILES>  (515) 
Cc1ccc(N)c(NC(=O)[C@@]2(C)CNCCO2)c1F

>  <method>  (515) 
None

>  <submitter_email>  (515) 
None

>  <HIPPO ID>  (515) 
114862

$$$$
GTMQLONVJYLJPI-ZDUSSCGKSA-N
     RDKit          3D

 19 20  0  0  0  0  0  0  0  0999 V2000
   13.7960    7.1514   11.2718 C   0  0  0  0  0  0  0  0  0  0  0  0
   14.6447    8.3750   11.1081 C   0  0  0  0  0  0  0  0  0  0  0  0
   15.2412    8.6092    9.8875 C   0  0  0  0  0  0  0  0  0  0  0  0
   16.2001    9.6092    9.7698 C   0  0  0  0  0  0  0  0  0  0  0  0
   16.5672   10.4408   10.8463 C   0  0  0  0  0  0  0  0  0  0  0  0
   17.7398   11.2160   10.6383 N   0  0  0  0  0  0  0  0  0  0  0  0
   18.4995   11.9877   11.5100 C   0  0  0  0  0  0  0  0  0  0  0  0
   18.0452   12.4759   12.5476 O   0  0  0  0  0  0  0  0  0  0  0  0
   20.0023   12.2829   11.0582 C   0  0  2  0  0  0  0  0  0  0  0  0
   20.5791   11.1573   10.2144 C   0  0  0  0  0  0  0  0  0  0  0  0
   21.1108   12.3791   12.1523 C   0  0  0  0  0  0  0  0  0  0  0  0
   21.1501   13.5853   12.9578 N   0  0  0  0  0  0  0  0  0  0  0  0
   21.1970   14.7199   12.0490 C   0  0  0  0  0  0  0  0  0  0  0  0
   20.0099   14.6631   11.0973 C   0  0  0  0  0  0  0  0  0  0  0  0
   20.0074   13.4865   10.2745 O   0  0  0  0  0  0  0  0  0  0  0  0
   15.8452   10.3341   12.0313 C   0  0  0  0  0  0  0  0  0  0  0  0
   15.8470   11.3029   13.0369 N   0  0  0  0  0  0  0  0  0  0  0  0
   14.9028    9.2970   12.1278 C   0  0  0  0  0  0  0  0  0  0  0  0
   14.2117    9.2438   13.2700 F   0  0  0  0  0  0  0  0  0  0  0  0
  1  2  1  0
  2  3  2  0
  3  4  1  0
  4  5  2  0
  5  6  1  0
  6  7  1  0
  7  8  2  0
  7  9  1  0
  9 10  1  6
  9 11  1  0
 11 12  1  0
 12 13  1  0
 13 14  1  0
 14 15  1  0
  5 16  1  0
 16 17  1  0
 16 18  2  0
 18 19  1  0
 18  2  1  0
 15  9  1  0
M  END
>  <ref_pdb>  (516) 
c0270a

>  <inchikey>  (516) 
GTMQLONVJYLJPI-ZDUSSCGKSA-N

>  <original ID>  (516) 
GTMQLONVJYLJPI-ZDUSSCGKSA-N

>  <generation_date>  (516) 
None

>  <alias>  (516) 
None

>  <tags>  (516) 
[]

>  <ref_mols>  (516) 
c0692a,c1116a

>  <ref_url>  (516) 
None

>  <submitter_name>  (516) 
None

>  <exports>  (516) 
nan

>  <original SMILES>  (516) 
Cc1ccc(NC(=O)[C@]2(C)CNCCO2)c(N)c1F

>  <method>  (516) 
None

>  <submitter_email>  (516) 
None

>  <HIPPO ID>  (516) 
114863

$$$$
GTMQLONVJYLJPI-CYBMUJFWSA-N
     RDKit          3D

 19 20  0  0  0  0  0  0  0  0999 V2000
   13.7739    7.1607   11.1244 C   0  0  0  0  0  0  0  0  0  0  0  0
   14.6346    8.3803   10.9967 C   0  0  0  0  0  0  0  0  0  0  0  0
   15.2476    8.6359    9.7885 C   0  0  0  0  0  0  0  0  0  0  0  0
   16.2513    9.5966    9.7061 C   0  0  0  0  0  0  0  0  0  0  0  0
   16.6180   10.4013   10.7947 C   0  0  0  0  0  0  0  0  0  0  0  0
   17.7906   11.1938   10.6408 N   0  0  0  0  0  0  0  0  0  0  0  0
   18.1591   12.3056   11.3770 C   0  0  0  0  0  0  0  0  0  0  0  0
   17.3440   12.9358   12.0621 O   0  0  0  0  0  0  0  0  0  0  0  0
   19.6613   12.7960   11.2669 C   0  0  1  0  0  0  0  0  0  0  0  0
   19.9272   13.6693   12.5003 C   0  0  0  0  0  0  0  0  0  0  0  0
   20.6624   11.6029   11.2455 C   0  0  0  0  0  0  0  0  0  0  0  0
   21.6599   11.6499   10.1818 N   0  0  0  0  0  0  0  0  0  0  0  0
   22.2501   12.9820   10.0944 C   0  0  0  0  0  0  0  0  0  0  0  0
   21.1982   14.0919    9.9232 C   0  0  0  0  0  0  0  0  0  0  0  0
   19.8411   13.6548   10.1270 O   0  0  0  0  0  0  0  0  0  0  0  0
   15.8729   10.2845   11.9730 C   0  0  0  0  0  0  0  0  0  0  0  0
   16.2050   10.9438   13.1854 N   0  0  0  0  0  0  0  0  0  0  0  0
   14.9277    9.2474   12.0504 C   0  0  0  0  0  0  0  0  0  0  0  0
   14.2663    9.1467   13.2065 F   0  0  0  0  0  0  0  0  0  0  0  0
  1  2  1  0
  2  3  2  0
  3  4  1  0
  4  5  2  0
  5  6  1  0
  6  7  1  0
  7  8  2  0
  7  9  1  0
  9 10  1  1
  9 11  1  0
 11 12  1  0
 12 13  1  0
 13 14  1  0
 14 15  1  0
  5 16  1  0
 16 17  1  0
 16 18  2  0
 18 19  1  0
 18  2  1  0
 15  9  1  0
M  END
>  <ref_pdb>  (517) 
c0270a

>  <inchikey>  (517) 
GTMQLONVJYLJPI-CYBMUJFWSA-N

>  <original ID>  (517) 
GTMQLONVJYLJPI-CYBMUJFWSA-N

>  <generation_date>  (517) 
None

>  <alias>  (517) 
None

>  <tags>  (517) 
[]

>  <ref_mols>  (517) 
c0692a,c1116a

>  <ref_url>  (517) 
None

>  <submitter_name>  (517) 
None

>  <exports>  (517) 
nan

>  <original SMILES>  (517) 
Cc1ccc(NC(=O)[C@@]2(C)CNCCO2)c(N)c1F

>  <method>  (517) 
None

>  <submitter_email>  (517) 
None

>  <HIPPO ID>  (517) 
114864

$$$$
SIUHZOBCDYBQPM-GFCCVEGCSA-N
     RDKit          3D

 19 20  0  0  0  0  0  0  0  0999 V2000
   20.1858   13.4422   12.4337 C   0  0  0  0  0  0  0  0  0  0  0  0
   19.8490   12.7384   11.1065 C   0  0  2  0  0  0  0  0  0  0  0  0
   18.3343   12.3478   11.2350 C   0  0  0  0  0  0  0  0  0  0  0  0
   17.5426   13.0992   11.8227 O   0  0  0  0  0  0  0  0  0  0  0  0
   17.9033   11.1802   10.6374 N   0  0  0  0  0  0  0  0  0  0  0  0
   16.6883   10.5145   10.9384 C   0  0  0  0  0  0  0  0  0  0  0  0
   16.1116    9.7471    9.9189 C   0  0  0  0  0  0  0  0  0  0  0  0
   15.0135    8.9511   10.1946 C   0  0  0  0  0  0  0  0  0  0  0  0
   13.8262    8.4449    8.8398 Br  0  0  0  0  0  0  0  0  0  0  0  0
   14.6114    8.7397   11.4911 C   0  0  0  0  0  0  0  0  0  0  0  0
   15.0332    9.6482   12.4370 C   0  0  0  0  0  0  0  0  0  0  0  0
   14.2949    9.7713   13.5782 O   0  0  0  0  0  0  0  0  0  0  0  0
   16.0656   10.5522   12.2015 C   0  0  0  0  0  0  0  0  0  0  0  0
   16.5660   11.2758   13.3030 N   0  0  0  0  0  0  0  0  0  0  0  0
   20.7680   11.5178   10.8639 C   0  0  0  0  0  0  0  0  0  0  0  0
   22.1886   11.8814   10.8195 N   0  0  0  0  0  0  0  0  0  0  0  0
   22.4258   12.9493    9.8398 C   0  0  0  0  0  0  0  0  0  0  0  0
   21.4090   14.1076    9.9045 C   0  0  0  0  0  0  0  0  0  0  0  0
   20.0373   13.6815   10.0299 O   0  0  0  0  0  0  0  0  0  0  0  0
  2  1  1  1
  2  3  1  0
  3  4  2  0
  3  5  1  0
  5  6  1  0
  6  7  2  0
  7  8  1  0
  8  9  1  0
  8 10  2  0
 10 11  1  0
 11 12  1  0
 11 13  2  0
 13 14  1  0
  2 15  1  0
 15 16  1  0
 16 17  1  0
 17 18  1  0
 18 19  1  0
 19  2  1  0
 13  6  1  0
M  END
>  <ref_pdb>  (518) 
c0270a

>  <inchikey>  (518) 
SIUHZOBCDYBQPM-GFCCVEGCSA-N

>  <original ID>  (518) 
SIUHZOBCDYBQPM-GFCCVEGCSA-N

>  <generation_date>  (518) 
None

>  <alias>  (518) 
None

>  <tags>  (518) 
[]

>  <ref_mols>  (518) 
c0692a,c1116a

>  <ref_url>  (518) 
None

>  <submitter_name>  (518) 
None

>  <exports>  (518) 
nan

>  <original SMILES>  (518) 
C[C@]1(C(=O)Nc2cc(Br)cc(O)c2N)CNCCO1

>  <method>  (518) 
None

>  <submitter_email>  (518) 
None

>  <HIPPO ID>  (518) 
114871

$$$$
SHAPNOGXDNVORA-GFCCVEGCSA-N
     RDKit          3D

 19 20  0  0  0  0  0  0  0  0999 V2000
   19.9674   13.3469   12.4206 C   0  0  0  0  0  0  0  0  0  0  0  0
   19.6755   12.6516   11.0757 C   0  0  2  0  0  0  0  0  0  0  0  0
   18.1502   12.2349   11.1736 C   0  0  0  0  0  0  0  0  0  0  0  0
   17.3480   12.9566   11.7869 O   0  0  0  0  0  0  0  0  0  0  0  0
   17.7006   11.0859   10.5488 N   0  0  0  0  0  0  0  0  0  0  0  0
   16.5208   10.3550   10.9031 C   0  0  0  0  0  0  0  0  0  0  0  0
   15.9387    9.4830    9.9588 C   0  0  0  0  0  0  0  0  0  0  0  0
   16.3116    9.4690    8.6191 N   0  0  0  0  0  0  0  0  0  0  0  0
   15.0615    8.4720   10.3592 C   0  0  0  0  0  0  0  0  0  0  0  0
   14.6471    8.3987   11.6752 C   0  0  0  0  0  0  0  0  0  0  0  0
   15.0563    9.3870   12.5626 C   0  0  0  0  0  0  0  0  0  0  0  0
   14.3234    9.4694   14.2897 Br  0  0  0  0  0  0  0  0  0  0  0  0
   15.9956   10.3455   12.1956 C   0  0  0  0  0  0  0  0  0  0  0  0
   16.4315   11.1878   13.1815 O   0  0  0  0  0  0  0  0  0  0  0  0
   20.6007   11.4370   10.8367 C   0  0  0  0  0  0  0  0  0  0  0  0
   22.0250   11.7846   10.8664 N   0  0  0  0  0  0  0  0  0  0  0  0
   22.3210   12.8825    9.9387 C   0  0  0  0  0  0  0  0  0  0  0  0
   21.3059   14.0427    9.9881 C   0  0  0  0  0  0  0  0  0  0  0  0
   19.9267   13.6188   10.0362 O   0  0  0  0  0  0  0  0  0  0  0  0
  2  1  1  1
  2  3  1  0
  3  4  2  0
  3  5  1  0
  5  6  1  0
  6  7  2  0
  7  8  1  0
  7  9  1  0
  9 10  2  0
 10 11  1  0
 11 12  1  0
 11 13  2  0
 13 14  1  0
  2 15  1  0
 15 16  1  0
 16 17  1  0
 17 18  1  0
 18 19  1  0
 19  2  1  0
 13  6  1  0
M  END
>  <ref_pdb>  (519) 
c0270a

>  <inchikey>  (519) 
SHAPNOGXDNVORA-GFCCVEGCSA-N

>  <original ID>  (519) 
SHAPNOGXDNVORA-GFCCVEGCSA-N

>  <generation_date>  (519) 
None

>  <alias>  (519) 
None

>  <tags>  (519) 
[]

>  <ref_mols>  (519) 
c0692a,c1116a

>  <ref_url>  (519) 
None

>  <submitter_name>  (519) 
None

>  <exports>  (519) 
nan

>  <original SMILES>  (519) 
C[C@]1(C(=O)Nc2c(N)ccc(Br)c2O)CNCCO1

>  <method>  (519) 
None

>  <submitter_email>  (519) 
None

>  <HIPPO ID>  (519) 
114872

$$$$
SHAPNOGXDNVORA-LBPRGKRZSA-N
     RDKit          3D

 19 20  0  0  0  0  0  0  0  0999 V2000
   20.1047   13.8938   10.5740 C   0  0  0  0  0  0  0  0  0  0  0  0
   19.7926   12.5717   11.2753 C   0  0  1  0  0  0  0  0  0  0  0  0
   18.2387   12.2600   11.2734 C   0  0  0  0  0  0  0  0  0  0  0  0
   17.4506   13.0114   11.8664 O   0  0  0  0  0  0  0  0  0  0  0  0
   17.7522   11.1317   10.6208 N   0  0  0  0  0  0  0  0  0  0  0  0
   16.5548   10.4133   10.9544 C   0  0  0  0  0  0  0  0  0  0  0  0
   15.9841    9.5287   10.0085 C   0  0  0  0  0  0  0  0  0  0  0  0
   16.3607    9.4923    8.6695 N   0  0  0  0  0  0  0  0  0  0  0  0
   15.0984    8.5217   10.4030 C   0  0  0  0  0  0  0  0  0  0  0  0
   14.6679    8.4566   11.7120 C   0  0  0  0  0  0  0  0  0  0  0  0
   15.0643    9.4525   12.5961 C   0  0  0  0  0  0  0  0  0  0  0  0
   14.3107    9.5328   14.3137 Br  0  0  0  0  0  0  0  0  0  0  0  0
   16.0085   10.4119   12.2380 C   0  0  0  0  0  0  0  0  0  0  0  0
   16.4289   11.2514   13.2320 O   0  0  0  0  0  0  0  0  0  0  0  0
   20.6276   11.3899   10.7528 C   0  0  0  0  0  0  0  0  0  0  0  0
   22.0672   11.6548   10.8130 N   0  0  0  0  0  0  0  0  0  0  0  0
   22.4264   11.8856   12.2207 C   0  0  0  0  0  0  0  0  0  0  0  0
   21.5623   12.9689   12.8857 C   0  0  0  0  0  0  0  0  0  0  0  0
   20.1487   12.7871   12.6657 O   0  0  0  0  0  0  0  0  0  0  0  0
  2  1  1  6
  2  3  1  0
  3  4  2  0
  3  5  1  0
  5  6  1  0
  6  7  2  0
  7  8  1  0
  7  9  1  0
  9 10  2  0
 10 11  1  0
 11 12  1  0
 11 13  2  0
 13 14  1  0
  2 15  1  0
 15 16  1  0
 16 17  1  0
 17 18  1  0
 18 19  1  0
 19  2  1  0
 13  6  1  0
M  END
>  <ref_pdb>  (520) 
c0270a

>  <inchikey>  (520) 
SHAPNOGXDNVORA-LBPRGKRZSA-N

>  <original ID>  (520) 
SHAPNOGXDNVORA-LBPRGKRZSA-N

>  <generation_date>  (520) 
None

>  <alias>  (520) 
None

>  <tags>  (520) 
[]

>  <ref_mols>  (520) 
c0692a,c1116a

>  <ref_url>  (520) 
None

>  <submitter_name>  (520) 
None

>  <exports>  (520) 
nan

>  <original SMILES>  (520) 
C[C@@]1(C(=O)Nc2c(N)ccc(Br)c2O)CNCCO1

>  <method>  (520) 
None

>  <submitter_email>  (520) 
None

>  <HIPPO ID>  (520) 
114873

$$$$
URMURNHEOIEHSR-GFCCVEGCSA-N
     RDKit          3D

 19 20  0  0  0  0  0  0  0  0999 V2000
   19.9341   13.6409   12.5348 C   0  0  0  0  0  0  0  0  0  0  0  0
   19.6550   12.7977   11.2850 C   0  0  2  0  0  0  0  0  0  0  0  0
   18.1510   12.3250   11.3823 C   0  0  0  0  0  0  0  0  0  0  0  0
   17.3377   12.9659   12.0609 O   0  0  0  0  0  0  0  0  0  0  0  0
   17.7720   11.2175   10.6461 N   0  0  0  0  0  0  0  0  0  0  0  0
   16.6099   10.4163   10.8269 C   0  0  0  0  0  0  0  0  0  0  0  0
   16.2311    9.6009    9.7495 C   0  0  0  0  0  0  0  0  0  0  0  0
   15.2633    8.6089    9.8741 C   0  0  0  0  0  0  0  0  0  0  0  0
   14.6987    8.3621   11.1055 C   0  0  0  0  0  0  0  0  0  0  0  0
   13.6561    6.7844   11.2792 Br  0  0  0  0  0  0  0  0  0  0  0  0
   14.9738    9.2454   12.1511 C   0  0  0  0  0  0  0  0  0  0  0  0
   14.2981    9.1673   13.3361 O   0  0  0  0  0  0  0  0  0  0  0  0
   15.9098   10.2899   12.0384 C   0  0  0  0  0  0  0  0  0  0  0  0
   16.3094   10.9541   13.2225 N   0  0  0  0  0  0  0  0  0  0  0  0
   20.6475   11.5997   11.2238 C   0  0  0  0  0  0  0  0  0  0  0  0
   21.6708   11.6955   10.1879 N   0  0  0  0  0  0  0  0  0  0  0  0
   22.2431   13.0364   10.1578 C   0  0  0  0  0  0  0  0  0  0  0  0
   21.1822   14.1334    9.9786 C   0  0  0  0  0  0  0  0  0  0  0  0
   19.8295   13.6831   10.1697 O   0  0  0  0  0  0  0  0  0  0  0  0
  2  1  1  1
  2  3  1  0
  3  4  2  0
  3  5  1  0
  5  6  1  0
  6  7  2  0
  7  8  1  0
  8  9  2  0
  9 10  1  0
  9 11  1  0
 11 12  1  0
 11 13  2  0
 13 14  1  0
  2 15  1  0
 15 16  1  0
 16 17  1  0
 17 18  1  0
 18 19  1  0
 19  2  1  0
 13  6  1  0
M  END
>  <ref_pdb>  (521) 
c0270a

>  <inchikey>  (521) 
URMURNHEOIEHSR-GFCCVEGCSA-N

>  <original ID>  (521) 
URMURNHEOIEHSR-GFCCVEGCSA-N

>  <generation_date>  (521) 
None

>  <alias>  (521) 
None

>  <tags>  (521) 
[]

>  <ref_mols>  (521) 
c0692a,c1116a

>  <ref_url>  (521) 
None

>  <submitter_name>  (521) 
None

>  <exports>  (521) 
nan

>  <original SMILES>  (521) 
C[C@]1(C(=O)Nc2ccc(Br)c(O)c2N)CNCCO1

>  <method>  (521) 
None

>  <submitter_email>  (521) 
None

>  <HIPPO ID>  (521) 
114874

$$$$
URMURNHEOIEHSR-LBPRGKRZSA-N
     RDKit          3D

 19 20  0  0  0  0  0  0  0  0999 V2000
   20.0359   13.9048   10.6883 C   0  0  0  0  0  0  0  0  0  0  0  0
   19.8629   12.5197   11.3135 C   0  0  1  0  0  0  0  0  0  0  0  0
   18.3126   12.1689   11.4073 C   0  0  0  0  0  0  0  0  0  0  0  0
   17.5633   12.8357   12.1311 O   0  0  0  0  0  0  0  0  0  0  0  0
   17.8255   11.1178   10.6459 N   0  0  0  0  0  0  0  0  0  0  0  0
   16.6168   10.3807   10.8095 C   0  0  0  0  0  0  0  0  0  0  0  0
   16.2231    9.5875    9.7171 C   0  0  0  0  0  0  0  0  0  0  0  0
   15.2149    8.6314    9.8073 C   0  0  0  0  0  0  0  0  0  0  0  0
   14.6486    8.3657   11.0312 C   0  0  0  0  0  0  0  0  0  0  0  0
   13.6317    6.7709   11.1924 Br  0  0  0  0  0  0  0  0  0  0  0  0
   14.9450    9.2217   12.0892 C   0  0  0  0  0  0  0  0  0  0  0  0
   14.3948    9.0474   13.3283 O   0  0  0  0  0  0  0  0  0  0  0  0
   15.8618   10.2873   11.9816 C   0  0  0  0  0  0  0  0  0  0  0  0
   16.1145   11.0141   13.1765 N   0  0  0  0  0  0  0  0  0  0  0  0
   20.7012   11.4036   10.6528 C   0  0  0  0  0  0  0  0  0  0  0  0
   22.0865   11.8061   10.4041 N   0  0  0  0  0  0  0  0  0  0  0  0
   22.6509   12.4926   11.5718 C   0  0  0  0  0  0  0  0  0  0  0  0
   21.7683   12.4360   12.8310 C   0  0  0  0  0  0  0  0  0  0  0  0
   20.3680   12.7273   12.6513 O   0  0  0  0  0  0  0  0  0  0  0  0
  2  1  1  6
  2  3  1  0
  3  4  2  0
  3  5  1  0
  5  6  1  0
  6  7  2  0
  7  8  1  0
  8  9  2  0
  9 10  1  0
  9 11  1  0
 11 12  1  0
 11 13  2  0
 13 14  1  0
  2 15  1  0
 15 16  1  0
 16 17  1  0
 17 18  1  0
 18 19  1  0
 19  2  1  0
 13  6  1  0
M  END
>  <ref_pdb>  (522) 
c0270a

>  <inchikey>  (522) 
URMURNHEOIEHSR-LBPRGKRZSA-N

>  <original ID>  (522) 
URMURNHEOIEHSR-LBPRGKRZSA-N

>  <generation_date>  (522) 
None

>  <alias>  (522) 
None

>  <tags>  (522) 
[]

>  <ref_mols>  (522) 
c0692a,c1116a

>  <ref_url>  (522) 
None

>  <submitter_name>  (522) 
None

>  <exports>  (522) 
nan

>  <original SMILES>  (522) 
C[C@@]1(C(=O)Nc2ccc(Br)c(O)c2N)CNCCO1

>  <method>  (522) 
None

>  <submitter_email>  (522) 
None

>  <HIPPO ID>  (522) 
114875

$$$$
XVCDIAHLSHWJGM-ZDUSSCGKSA-N
     RDKit          3D

 19 20  0  0  0  0  0  0  0  0999 V2000
   14.4195    9.3966   13.8693 C   0  0  0  0  0  0  0  0  0  0  0  0
   14.9841    9.2758   12.4962 C   0  0  0  0  0  0  0  0  0  0  0  0
   15.9130   10.2759   12.1584 C   0  0  0  0  0  0  0  0  0  0  0  0
   16.4820   10.3339   10.8969 C   0  0  0  0  0  0  0  0  0  0  0  0
   17.6526   11.1105   10.6314 N   0  0  0  0  0  0  0  0  0  0  0  0
   18.2030   12.0859   11.4663 C   0  0  0  0  0  0  0  0  0  0  0  0
   17.5097   12.6679   12.3086 O   0  0  0  0  0  0  0  0  0  0  0  0
   19.7557   12.4562   11.3256 C   0  0  2  0  0  0  0  0  0  0  0  0
   19.9149   13.8614   10.7512 C   0  0  0  0  0  0  0  0  0  0  0  0
   20.5671   11.3568   10.6148 C   0  0  0  0  0  0  0  0  0  0  0  0
   21.9414   11.7623   10.3180 N   0  0  0  0  0  0  0  0  0  0  0  0
   22.5582   12.4131   11.4792 C   0  0  0  0  0  0  0  0  0  0  0  0
   21.7250   12.3379   12.7688 C   0  0  0  0  0  0  0  0  0  0  0  0
   20.3209   12.6383   12.6455 O   0  0  0  0  0  0  0  0  0  0  0  0
   15.9425    9.4897    9.9108 C   0  0  0  0  0  0  0  0  0  0  0  0
   16.3494    9.5025    8.5845 N   0  0  0  0  0  0  0  0  0  0  0  0
   15.0855    8.4457   10.2536 C   0  0  0  0  0  0  0  0  0  0  0  0
   14.6498    8.2959   11.5545 C   0  0  0  0  0  0  0  0  0  0  0  0
   13.6352    6.7262   11.9056 Br  0  0  0  0  0  0  0  0  0  0  0  0
  1  2  1  0
  2  3  2  0
  3  4  1  0
  4  5  1  0
  5  6  1  0
  6  7  2  0
  6  8  1  0
  8  9  1  6
  8 10  1  0
 10 11  1  0
 11 12  1  0
 12 13  1  0
 13 14  1  0
  4 15  2  0
 15 16  1  0
 15 17  1  0
 17 18  2  0
 18 19  1  0
 18  2  1  0
 14  8  1  0
M  END
>  <ref_pdb>  (523) 
c0270a

>  <inchikey>  (523) 
XVCDIAHLSHWJGM-ZDUSSCGKSA-N

>  <original ID>  (523) 
XVCDIAHLSHWJGM-ZDUSSCGKSA-N

>  <generation_date>  (523) 
None

>  <alias>  (523) 
None

>  <tags>  (523) 
[]

>  <ref_mols>  (523) 
c0692a,c1116a

>  <ref_url>  (523) 
None

>  <submitter_name>  (523) 
None

>  <exports>  (523) 
nan

>  <original SMILES>  (523) 
Cc1cc(NC(=O)[C@]2(C)CNCCO2)c(N)cc1Br

>  <method>  (523) 
None

>  <submitter_email>  (523) 
None

>  <HIPPO ID>  (523) 
114876

$$$$
XVCDIAHLSHWJGM-CYBMUJFWSA-N
     RDKit          3D

 19 20  0  0  0  0  0  0  0  0999 V2000
   14.4403    9.4484   13.8268 C   0  0  0  0  0  0  0  0  0  0  0  0
   15.0004    9.2968   12.4546 C   0  0  0  0  0  0  0  0  0  0  0  0
   15.9302   10.2863   12.0908 C   0  0  0  0  0  0  0  0  0  0  0  0
   16.4878   10.3144   10.8230 C   0  0  0  0  0  0  0  0  0  0  0  0
   17.6506   11.0866   10.5294 N   0  0  0  0  0  0  0  0  0  0  0  0
   18.1029   12.1754   11.2620 C   0  0  0  0  0  0  0  0  0  0  0  0
   17.3364   12.8001   12.0060 O   0  0  0  0  0  0  0  0  0  0  0  0
   19.6269   12.6423   11.1123 C   0  0  1  0  0  0  0  0  0  0  0  0
   19.9459   13.3514   12.4439 C   0  0  0  0  0  0  0  0  0  0  0  0
   20.5652   11.4385   10.8556 C   0  0  0  0  0  0  0  0  0  0  0  0
   21.9874   11.7956   10.8780 N   0  0  0  0  0  0  0  0  0  0  0  0
   22.2708   12.9030    9.9582 C   0  0  0  0  0  0  0  0  0  0  0  0
   21.2401   14.0498   10.0112 C   0  0  0  0  0  0  0  0  0  0  0  0
   19.8643   13.6063   10.0672 O   0  0  0  0  0  0  0  0  0  0  0  0
   15.9410    9.4562    9.8588 C   0  0  0  0  0  0  0  0  0  0  0  0
   16.3423    9.4641    8.5312 N   0  0  0  0  0  0  0  0  0  0  0  0
   15.0838    8.4227   10.2251 C   0  0  0  0  0  0  0  0  0  0  0  0
   14.6566    8.3004   11.5324 C   0  0  0  0  0  0  0  0  0  0  0  0
   13.6431    6.7384   11.9197 Br  0  0  0  0  0  0  0  0  0  0  0  0
  1  2  1  0
  2  3  2  0
  3  4  1  0
  4  5  1  0
  5  6  1  0
  6  7  2  0
  6  8  1  0
  8  9  1  1
  8 10  1  0
 10 11  1  0
 11 12  1  0
 12 13  1  0
 13 14  1  0
  4 15  2  0
 15 16  1  0
 15 17  1  0
 17 18  2  0
 18 19  1  0
 18  2  1  0
 14  8  1  0
M  END
>  <ref_pdb>  (524) 
c0270a

>  <inchikey>  (524) 
XVCDIAHLSHWJGM-CYBMUJFWSA-N

>  <original ID>  (524) 
XVCDIAHLSHWJGM-CYBMUJFWSA-N

>  <generation_date>  (524) 
None

>  <alias>  (524) 
None

>  <tags>  (524) 
[]

>  <ref_mols>  (524) 
c0692a,c1116a

>  <ref_url>  (524) 
None

>  <submitter_name>  (524) 
None

>  <exports>  (524) 
nan

>  <original SMILES>  (524) 
Cc1cc(NC(=O)[C@@]2(C)CNCCO2)c(N)cc1Br

>  <method>  (524) 
None

>  <submitter_email>  (524) 
None

>  <HIPPO ID>  (524) 
114877

$$$$
WIKDVYYVCZUZCY-ZDUSSCGKSA-N
     RDKit          3D

 19 20  0  0  0  0  0  0  0  0999 V2000
   18.6240   10.4578   10.3250 C   0  0  0  0  0  0  0  0  0  0  0  0
   17.7324   11.4630   10.7909 N   0  0  0  0  0  0  0  0  0  0  0  0
   18.2461   12.5830   11.4558 C   0  0  0  0  0  0  0  0  0  0  0  0
   17.4427   13.3613   12.0033 O   0  0  0  0  0  0  0  0  0  0  0  0
   19.8473   12.9771   11.4932 C   0  0  2  0  0  0  0  0  0  0  0  0
   19.9594   14.3855   10.8865 C   0  0  0  0  0  0  0  0  0  0  0  0
   20.9290   12.0439   10.8811 C   0  0  0  0  0  0  0  0  0  0  0  0
   22.3094   12.5447   10.8750 N   0  0  0  0  0  0  0  0  0  0  0  0
   22.6102   13.2319   12.1311 C   0  0  0  0  0  0  0  0  0  0  0  0
   21.5748   12.9615   13.2250 C   0  0  0  0  0  0  0  0  0  0  0  0
   20.1959   13.1999   12.8791 O   0  0  0  0  0  0  0  0  0  0  0  0
   16.4138   10.8822   10.9979 C   0  0  0  0  0  0  0  0  0  0  0  0
   15.8644   10.1006    9.9418 C   0  0  0  0  0  0  0  0  0  0  0  0
   14.9981    9.0401   10.1687 C   0  0  0  0  0  0  0  0  0  0  0  0
   14.6418    8.7665   11.4710 C   0  0  0  0  0  0  0  0  0  0  0  0
   15.0115    9.6564   12.4864 C   0  0  0  0  0  0  0  0  0  0  0  0
   14.3517    9.3782   14.2282 Br  0  0  0  0  0  0  0  0  0  0  0  0
   15.8637   10.7523   12.2761 C   0  0  0  0  0  0  0  0  0  0  0  0
   16.3784   11.4483   13.3974 N   0  0  0  0  0  0  0  0  0  0  0  0
  1  2  1  0
  2  3  1  0
  3  4  2  0
  3  5  1  0
  5  6  1  6
  5  7  1  0
  7  8  1  0
  8  9  1  0
  9 10  1  0
 10 11  1  0
  2 12  1  0
 12 13  2  0
 13 14  1  0
 14 15  2  0
 15 16  1  0
 16 17  1  0
 16 18  2  0
 18 19  1  0
 11  5  1  0
 18 12  1  0
M  END
>  <ref_pdb>  (525) 
c0270a

>  <inchikey>  (525) 
WIKDVYYVCZUZCY-ZDUSSCGKSA-N

>  <original ID>  (525) 
WIKDVYYVCZUZCY-ZDUSSCGKSA-N

>  <generation_date>  (525) 
None

>  <alias>  (525) 
None

>  <tags>  (525) 
[]

>  <ref_mols>  (525) 
c0692a,c1116a

>  <ref_url>  (525) 
None

>  <submitter_name>  (525) 
None

>  <exports>  (525) 
nan

>  <original SMILES>  (525) 
CN(C(=O)[C@]1(C)CNCCO1)c1cccc(Br)c1N

>  <method>  (525) 
None

>  <submitter_email>  (525) 
None

>  <HIPPO ID>  (525) 
114878

$$$$
WIKDVYYVCZUZCY-CYBMUJFWSA-N
     RDKit          3D

 19 20  0  0  0  0  0  0  0  0999 V2000
   18.8371   10.7760   10.1587 C   0  0  0  0  0  0  0  0  0  0  0  0
   17.7921   11.4621   10.8441 N   0  0  0  0  0  0  0  0  0  0  0  0
   18.1233   12.6221   11.5456 C   0  0  0  0  0  0  0  0  0  0  0  0
   17.2288   13.2736   12.1115 O   0  0  0  0  0  0  0  0  0  0  0  0
   19.6256   13.2182   11.5306 C   0  0  1  0  0  0  0  0  0  0  0  0
   19.6254   14.3440   12.5814 C   0  0  0  0  0  0  0  0  0  0  0  0
   20.8119   12.2547   11.8736 C   0  0  0  0  0  0  0  0  0  0  0  0
   21.9809   12.2879   10.9807 N   0  0  0  0  0  0  0  0  0  0  0  0
   22.3145   13.6705   10.6752 C   0  0  0  0  0  0  0  0  0  0  0  0
   21.1376   14.4497   10.0730 C   0  0  0  0  0  0  0  0  0  0  0  0
   19.8546   13.8260   10.2394 O   0  0  0  0  0  0  0  0  0  0  0  0
   16.5911   10.6685   11.0489 C   0  0  0  0  0  0  0  0  0  0  0  0
   16.1229    9.8281   10.0053 C   0  0  0  0  0  0  0  0  0  0  0  0
   15.1852    8.8171   10.2034 C   0  0  0  0  0  0  0  0  0  0  0  0
   14.7007    8.6087   11.4760 C   0  0  0  0  0  0  0  0  0  0  0  0
   15.0584    9.4975   12.4910 C   0  0  0  0  0  0  0  0  0  0  0  0
   14.2982    9.3000   14.2063 Br  0  0  0  0  0  0  0  0  0  0  0  0
   15.9600   10.5601   12.2982 C   0  0  0  0  0  0  0  0  0  0  0  0
   16.3986   11.2847   13.4422 N   0  0  0  0  0  0  0  0  0  0  0  0
  1  2  1  0
  2  3  1  0
  3  4  2  0
  3  5  1  0
  5  6  1  1
  5  7  1  0
  7  8  1  0
  8  9  1  0
  9 10  1  0
 10 11  1  0
  2 12  1  0
 12 13  2  0
 13 14  1  0
 14 15  2  0
 15 16  1  0
 16 17  1  0
 16 18  2  0
 18 19  1  0
 11  5  1  0
 18 12  1  0
M  END
>  <ref_pdb>  (526) 
c0270a

>  <inchikey>  (526) 
WIKDVYYVCZUZCY-CYBMUJFWSA-N

>  <original ID>  (526) 
WIKDVYYVCZUZCY-CYBMUJFWSA-N

>  <generation_date>  (526) 
None

>  <alias>  (526) 
None

>  <tags>  (526) 
[]

>  <ref_mols>  (526) 
c0692a,c1116a

>  <ref_url>  (526) 
None

>  <submitter_name>  (526) 
None

>  <exports>  (526) 
nan

>  <original SMILES>  (526) 
CN(C(=O)[C@@]1(C)CNCCO1)c1cccc(Br)c1N

>  <method>  (526) 
None

>  <submitter_email>  (526) 
None

>  <HIPPO ID>  (526) 
114879

$$$$
VESIJBMVRPQMDM-GFCCVEGCSA-N
     RDKit          3D

 19 20  0  0  0  0  0  0  0  0999 V2000
   20.0522   13.2690   12.5450 C   0  0  0  0  0  0  0  0  0  0  0  0
   19.5958   12.6285   11.2100 C   0  0  2  0  0  0  0  0  0  0  0  0
   18.0862   12.1287   11.4053 C   0  0  0  0  0  0  0  0  0  0  0  0
   17.3687   12.6503   12.2666 O   0  0  0  0  0  0  0  0  0  0  0  0
   17.5859   11.1248   10.5796 N   0  0  0  0  0  0  0  0  0  0  0  0
   16.4532   10.3023   10.8560 C   0  0  0  0  0  0  0  0  0  0  0  0
   15.9388   10.1938   12.1357 C   0  0  0  0  0  0  0  0  0  0  0  0
   15.0391    9.1752   12.4613 C   0  0  0  0  0  0  0  0  0  0  0  0
   14.4540    9.2112   14.4283 I   0  0  0  0  0  0  0  0  0  0  0  0
   14.6333    8.2449   11.5044 C   0  0  0  0  0  0  0  0  0  0  0  0
   13.6586    6.8509   11.8110 Cl  0  0  0  0  0  0  0  0  0  0  0  0
   15.0360    8.4305   10.1978 C   0  0  0  0  0  0  0  0  0  0  0  0
   15.9023    9.4724    9.8655 C   0  0  0  0  0  0  0  0  0  0  0  0
   16.3137    9.4989    8.5425 N   0  0  0  0  0  0  0  0  0  0  0  0
   20.5246   11.4434   10.8041 C   0  0  0  0  0  0  0  0  0  0  0  0
   21.7711   11.7820   10.1269 N   0  0  0  0  0  0  0  0  0  0  0  0
   22.1632   13.1681   10.2881 C   0  0  0  0  0  0  0  0  0  0  0  0
   21.0196   14.1415    9.9437 C   0  0  0  0  0  0  0  0  0  0  0  0
   19.6825   13.6657   10.2174 O   0  0  0  0  0  0  0  0  0  0  0  0
  2  1  1  1
  2  3  1  0
  3  4  2  0
  3  5  1  0
  5  6  1  0
  6  7  2  0
  7  8  1  0
  8  9  1  0
  8 10  2  0
 10 11  1  0
 10 12  1  0
 12 13  2  0
 13 14  1  0
  2 15  1  0
 15 16  1  0
 16 17  1  0
 17 18  1  0
 18 19  1  0
 19  2  1  0
 13  6  1  0
M  END
>  <ref_pdb>  (527) 
c0270a

>  <inchikey>  (527) 
VESIJBMVRPQMDM-GFCCVEGCSA-N

>  <original ID>  (527) 
VESIJBMVRPQMDM-GFCCVEGCSA-N

>  <generation_date>  (527) 
None

>  <alias>  (527) 
None

>  <tags>  (527) 
[]

>  <ref_mols>  (527) 
c0692a,c1116a

>  <ref_url>  (527) 
None

>  <submitter_name>  (527) 
None

>  <exports>  (527) 
nan

>  <original SMILES>  (527) 
C[C@]1(C(=O)Nc2cc(I)c(Cl)cc2N)CNCCO1

>  <method>  (527) 
None

>  <submitter_email>  (527) 
None

>  <HIPPO ID>  (527) 
114884

$$$$
VESIJBMVRPQMDM-LBPRGKRZSA-N
     RDKit          3D

 19 20  0  0  0  0  0  0  0  0999 V2000
   20.0406   13.8777   10.5597 C   0  0  0  0  0  0  0  0  0  0  0  0
   19.7169   12.5917   11.3105 C   0  0  1  0  0  0  0  0  0  0  0  0
   18.1628   12.2253   11.3290 C   0  0  0  0  0  0  0  0  0  0  0  0
   17.3779   12.8906   12.0146 O   0  0  0  0  0  0  0  0  0  0  0  0
   17.7039   11.1434   10.5699 N   0  0  0  0  0  0  0  0  0  0  0  0
   16.5334   10.3712   10.8453 C   0  0  0  0  0  0  0  0  0  0  0  0
   15.9933   10.3365   12.1173 C   0  0  0  0  0  0  0  0  0  0  0  0
   15.0884    9.3306   12.4755 C   0  0  0  0  0  0  0  0  0  0  0  0
   14.4883    9.4388   14.4309 I   0  0  0  0  0  0  0  0  0  0  0  0
   14.6966    8.3524   11.5589 C   0  0  0  0  0  0  0  0  0  0  0  0
   13.7442    6.9541   11.9169 Cl  0  0  0  0  0  0  0  0  0  0  0  0
   15.1086    8.4797   10.2502 C   0  0  0  0  0  0  0  0  0  0  0  0
   15.9868    9.4992    9.8861 C   0  0  0  0  0  0  0  0  0  0  0  0
   16.3893    9.4740    8.5598 N   0  0  0  0  0  0  0  0  0  0  0  0
   20.5650   11.4006   10.8315 C   0  0  0  0  0  0  0  0  0  0  0  0
   22.0106   11.5856   10.9589 N   0  0  0  0  0  0  0  0  0  0  0  0
   22.3232   11.9267   12.3534 C   0  0  0  0  0  0  0  0  0  0  0  0
   21.4719   13.0712   12.9170 C   0  0  0  0  0  0  0  0  0  0  0  0
   20.0637   12.8901   12.6846 O   0  0  0  0  0  0  0  0  0  0  0  0
  2  1  1  6
  2  3  1  0
  3  4  2  0
  3  5  1  0
  5  6  1  0
  6  7  2  0
  7  8  1  0
  8  9  1  0
  8 10  2  0
 10 11  1  0
 10 12  1  0
 12 13  2  0
 13 14  1  0
  2 15  1  0
 15 16  1  0
 16 17  1  0
 17 18  1  0
 18 19  1  0
 19  2  1  0
 13  6  1  0
M  END
>  <ref_pdb>  (528) 
c0270a

>  <inchikey>  (528) 
VESIJBMVRPQMDM-LBPRGKRZSA-N

>  <original ID>  (528) 
VESIJBMVRPQMDM-LBPRGKRZSA-N

>  <generation_date>  (528) 
None

>  <alias>  (528) 
None

>  <tags>  (528) 
[]

>  <ref_mols>  (528) 
c0692a,c1116a

>  <ref_url>  (528) 
None

>  <submitter_name>  (528) 
None

>  <exports>  (528) 
nan

>  <original SMILES>  (528) 
C[C@@]1(C(=O)Nc2cc(I)c(Cl)cc2N)CNCCO1

>  <method>  (528) 
None

>  <submitter_email>  (528) 
None

>  <HIPPO ID>  (528) 
114885

$$$$
PCCXKYDZFLXKKH-GFCCVEGCSA-N
     RDKit          3D

 19 20  0  0  0  0  0  0  0  0999 V2000
   19.9598   13.3608   12.4360 C   0  0  0  0  0  0  0  0  0  0  0  0
   19.6236   12.6366   11.1176 C   0  0  2  0  0  0  0  0  0  0  0  0
   18.1055   12.1557   11.2893 C   0  0  0  0  0  0  0  0  0  0  0  0
   17.3526   12.7516   12.0691 O   0  0  0  0  0  0  0  0  0  0  0  0
   17.6428   11.0824   10.5390 N   0  0  0  0  0  0  0  0  0  0  0  0
   16.4838   10.3006   10.8303 C   0  0  0  0  0  0  0  0  0  0  0  0
   15.9231   10.2611   12.0959 C   0  0  0  0  0  0  0  0  0  0  0  0
   15.0099    9.2581   12.4351 C   0  0  0  0  0  0  0  0  0  0  0  0
   14.3814    9.3877   14.0200 Cl  0  0  0  0  0  0  0  0  0  0  0  0
   14.6660    8.2593   11.5201 C   0  0  0  0  0  0  0  0  0  0  0  0
   13.5978    6.4936   11.9340 I   0  0  0  0  0  0  0  0  0  0  0  0
   15.0901    8.3992   10.2132 C   0  0  0  0  0  0  0  0  0  0  0  0
   15.9466    9.4408    9.8595 C   0  0  0  0  0  0  0  0  0  0  0  0
   16.3594    9.4523    8.5365 N   0  0  0  0  0  0  0  0  0  0  0  0
   20.5693   11.4399   10.8565 C   0  0  0  0  0  0  0  0  0  0  0  0
   21.9875   11.8121   10.8575 N   0  0  0  0  0  0  0  0  0  0  0  0
   22.2496   12.9157    9.9277 C   0  0  0  0  0  0  0  0  0  0  0  0
   21.1995   14.0467    9.9655 C   0  0  0  0  0  0  0  0  0  0  0  0
   19.8334   13.5905   10.0604 O   0  0  0  0  0  0  0  0  0  0  0  0
  2  1  1  1
  2  3  1  0
  3  4  2  0
  3  5  1  0
  5  6  1  0
  6  7  2  0
  7  8  1  0
  8  9  1  0
  8 10  2  0
 10 11  1  0
 10 12  1  0
 12 13  2  0
 13 14  1  0
  2 15  1  0
 15 16  1  0
 16 17  1  0
 17 18  1  0
 18 19  1  0
 19  2  1  0
 13  6  1  0
M  END
>  <ref_pdb>  (529) 
c0270a

>  <inchikey>  (529) 
PCCXKYDZFLXKKH-GFCCVEGCSA-N

>  <original ID>  (529) 
PCCXKYDZFLXKKH-GFCCVEGCSA-N

>  <generation_date>  (529) 
None

>  <alias>  (529) 
None

>  <tags>  (529) 
[]

>  <ref_mols>  (529) 
c0692a,c1116a

>  <ref_url>  (529) 
None

>  <submitter_name>  (529) 
None

>  <exports>  (529) 
nan

>  <original SMILES>  (529) 
C[C@]1(C(=O)Nc2cc(Cl)c(I)cc2N)CNCCO1

>  <method>  (529) 
None

>  <submitter_email>  (529) 
None

>  <HIPPO ID>  (529) 
114886

$$$$
PCCXKYDZFLXKKH-LBPRGKRZSA-N
     RDKit          3D

 19 20  0  0  0  0  0  0  0  0999 V2000
   19.8757   13.8709   10.7826 C   0  0  0  0  0  0  0  0  0  0  0  0
   19.7399   12.4586   11.3427 C   0  0  1  0  0  0  0  0  0  0  0  0
   18.1912   12.0708   11.4879 C   0  0  0  0  0  0  0  0  0  0  0  0
   17.4988   12.6289   12.3465 O   0  0  0  0  0  0  0  0  0  0  0  0
   17.6415   11.1036   10.6421 N   0  0  0  0  0  0  0  0  0  0  0  0
   16.4747   10.3172   10.9037 C   0  0  0  0  0  0  0  0  0  0  0  0
   15.9031   10.2488   12.1632 C   0  0  0  0  0  0  0  0  0  0  0  0
   14.9923    9.2353   12.4770 C   0  0  0  0  0  0  0  0  0  0  0  0
   14.3517    9.3319   14.0592 Cl  0  0  0  0  0  0  0  0  0  0  0  0
   14.6579    8.2527   11.5421 C   0  0  0  0  0  0  0  0  0  0  0  0
   13.5863    6.4800   11.9159 I   0  0  0  0  0  0  0  0  0  0  0  0
   15.0906    8.4192   10.2417 C   0  0  0  0  0  0  0  0  0  0  0  0
   15.9458    9.4713    9.9110 C   0  0  0  0  0  0  0  0  0  0  0  0
   16.3640    9.4887    8.5892 N   0  0  0  0  0  0  0  0  0  0  0  0
   20.5596   11.3740   10.6188 C   0  0  0  0  0  0  0  0  0  0  0  0
   21.9259   11.7991   10.3110 N   0  0  0  0  0  0  0  0  0  0  0  0
   22.5429   12.4623   11.4660 C   0  0  0  0  0  0  0  0  0  0  0  0
   21.7261   12.3659   12.7660 C   0  0  0  0  0  0  0  0  0  0  0  0
   20.3136   12.6347   12.6593 O   0  0  0  0  0  0  0  0  0  0  0  0
  2  1  1  6
  2  3  1  0
  3  4  2  0
  3  5  1  0
  5  6  1  0
  6  7  2  0
  7  8  1  0
  8  9  1  0
  8 10  2  0
 10 11  1  0
 10 12  1  0
 12 13  2  0
 13 14  1  0
  2 15  1  0
 15 16  1  0
 16 17  1  0
 17 18  1  0
 18 19  1  0
 19  2  1  0
 13  6  1  0
M  END
>  <ref_pdb>  (530) 
c0270a

>  <inchikey>  (530) 
PCCXKYDZFLXKKH-LBPRGKRZSA-N

>  <original ID>  (530) 
PCCXKYDZFLXKKH-LBPRGKRZSA-N

>  <generation_date>  (530) 
None

>  <alias>  (530) 
None

>  <tags>  (530) 
[]

>  <ref_mols>  (530) 
c0692a,c1116a

>  <ref_url>  (530) 
None

>  <submitter_name>  (530) 
None

>  <exports>  (530) 
nan

>  <original SMILES>  (530) 
C[C@@]1(C(=O)Nc2cc(Cl)c(I)cc2N)CNCCO1

>  <method>  (530) 
None

>  <submitter_email>  (530) 
None

>  <HIPPO ID>  (530) 
114887

$$$$
HDECPEVEKFGRJM-ZDUSSCGKSA-N
     RDKit          3D

 19 20  0  0  0  0  0  0  0  0999 V2000
   13.8561    7.1568   11.9512 C   0  0  0  0  0  0  0  0  0  0  0  0
   14.6504    8.3844   11.6069 C   0  0  0  0  0  0  0  0  0  0  0  0
   15.1094    8.4882   10.3034 C   0  0  0  0  0  0  0  0  0  0  0  0
   15.9679    9.5202    9.9257 C   0  0  0  0  0  0  0  0  0  0  0  0
   16.3716    9.4917    8.5992 N   0  0  0  0  0  0  0  0  0  0  0  0
   16.4975   10.4056   10.8814 C   0  0  0  0  0  0  0  0  0  0  0  0
   17.6733   11.1673   10.6034 N   0  0  0  0  0  0  0  0  0  0  0  0
   18.1618   12.2289   11.3707 C   0  0  0  0  0  0  0  0  0  0  0  0
   17.4009   12.9055   12.0712 O   0  0  0  0  0  0  0  0  0  0  0  0
   19.7240   12.5607   11.3346 C   0  0  2  0  0  0  0  0  0  0  0  0
   20.0337   13.8731   10.6240 C   0  0  0  0  0  0  0  0  0  0  0  0
   20.5292   11.3716   10.7868 C   0  0  0  0  0  0  0  0  0  0  0  0
   21.9814   11.5190   10.8596 N   0  0  0  0  0  0  0  0  0  0  0  0
   22.3571   11.7809   12.2538 C   0  0  0  0  0  0  0  0  0  0  0  0
   21.5483   12.9108   12.9020 C   0  0  0  0  0  0  0  0  0  0  0  0
   20.1279   12.7877   12.7067 O   0  0  0  0  0  0  0  0  0  0  0  0
   15.9233   10.4036   12.1389 C   0  0  0  0  0  0  0  0  0  0  0  0
   15.0015    9.4152   12.4890 C   0  0  0  0  0  0  0  0  0  0  0  0
   14.3485    9.5809   14.0600 Cl  0  0  0  0  0  0  0  0  0  0  0  0
  1  2  1  0
  2  3  2  0
  3  4  1  0
  4  5  1  0
  4  6  2  0
  6  7  1  0
  7  8  1  0
  8  9  2  0
  8 10  1  0
 10 11  1  6
 10 12  1  0
 12 13  1  0
 13 14  1  0
 14 15  1  0
 15 16  1  0
  6 17  1  0
 17 18  2  0
 18 19  1  0
 18  2  1  0
 16 10  1  0
M  END
>  <ref_pdb>  (531) 
c0270a

>  <inchikey>  (531) 
HDECPEVEKFGRJM-ZDUSSCGKSA-N

>  <original ID>  (531) 
HDECPEVEKFGRJM-ZDUSSCGKSA-N

>  <generation_date>  (531) 
None

>  <alias>  (531) 
None

>  <tags>  (531) 
[]

>  <ref_mols>  (531) 
c0692a,c1116a

>  <ref_url>  (531) 
None

>  <submitter_name>  (531) 
None

>  <exports>  (531) 
nan

>  <original SMILES>  (531) 
Cc1cc(N)c(NC(=O)[C@]2(C)CNCCO2)cc1Cl

>  <method>  (531) 
None

>  <submitter_email>  (531) 
None

>  <HIPPO ID>  (531) 
114896

$$$$
VKJZMAGJJVKABM-ZDUSSCGKSA-N
     RDKit          3D

 19 20  0  0  0  0  0  0  0  0999 V2000
   14.4148    9.4936   13.8652 C   0  0  0  0  0  0  0  0  0  0  0  0
   14.9916    9.3488   12.4997 C   0  0  0  0  0  0  0  0  0  0  0  0
   15.9235   10.3386   12.1470 C   0  0  0  0  0  0  0  0  0  0  0  0
   16.4982   10.3629   10.8878 C   0  0  0  0  0  0  0  0  0  0  0  0
   17.6701   11.1304   10.6118 N   0  0  0  0  0  0  0  0  0  0  0  0
   18.2162   12.1293   11.4232 C   0  0  0  0  0  0  0  0  0  0  0  0
   17.5153   12.7474   12.2321 O   0  0  0  0  0  0  0  0  0  0  0  0
   19.7777   12.4739   11.2914 C   0  0  2  0  0  0  0  0  0  0  0  0
   19.9860   13.8444   10.6596 C   0  0  0  0  0  0  0  0  0  0  0  0
   20.5554   11.3158   10.6431 C   0  0  0  0  0  0  0  0  0  0  0  0
   21.9935   11.4856   10.4839 N   0  0  0  0  0  0  0  0  0  0  0  0
   22.5576   12.3908   11.4798 C   0  0  0  0  0  0  0  0  0  0  0  0
   21.7261   12.4369   12.7710 C   0  0  0  0  0  0  0  0  0  0  0  0
   20.3121   12.6844   12.6191 O   0  0  0  0  0  0  0  0  0  0  0  0
   15.9672    9.4926    9.9180 C   0  0  0  0  0  0  0  0  0  0  0  0
   16.3809    9.4778    8.5929 N   0  0  0  0  0  0  0  0  0  0  0  0
   15.1031    8.4616   10.2775 C   0  0  0  0  0  0  0  0  0  0  0  0
   14.6579    8.3493   11.5775 C   0  0  0  0  0  0  0  0  0  0  0  0
   13.7106    6.9495   11.9390 Cl  0  0  0  0  0  0  0  0  0  0  0  0
  1  2  1  0
  2  3  2  0
  3  4  1  0
  4  5  1  0
  5  6  1  0
  6  7  2  0
  6  8  1  0
  8  9  1  6
  8 10  1  0
 10 11  1  0
 11 12  1  0
 12 13  1  0
 13 14  1  0
  4 15  2  0
 15 16  1  0
 15 17  1  0
 17 18  2  0
 18 19  1  0
 18  2  1  0
 14  8  1  0
M  END
>  <ref_pdb>  (532) 
c0270a

>  <inchikey>  (532) 
VKJZMAGJJVKABM-ZDUSSCGKSA-N

>  <original ID>  (532) 
VKJZMAGJJVKABM-ZDUSSCGKSA-N

>  <generation_date>  (532) 
None

>  <alias>  (532) 
None

>  <tags>  (532) 
[]

>  <ref_mols>  (532) 
c0692a,c1116a

>  <ref_url>  (532) 
None

>  <submitter_name>  (532) 
None

>  <exports>  (532) 
nan

>  <original SMILES>  (532) 
Cc1cc(NC(=O)[C@]2(C)CNCCO2)c(N)cc1Cl

>  <method>  (532) 
None

>  <submitter_email>  (532) 
None

>  <HIPPO ID>  (532) 
114897

$$$$
VKJZMAGJJVKABM-CYBMUJFWSA-N
     RDKit          3D

 19 20  0  0  0  0  0  0  0  0999 V2000
   14.4288    9.4904   13.8213 C   0  0  0  0  0  0  0  0  0  0  0  0
   15.0030    9.3289   12.4561 C   0  0  0  0  0  0  0  0  0  0  0  0
   15.9413   10.3077   12.0924 C   0  0  0  0  0  0  0  0  0  0  0  0
   16.5077   10.3216   10.8283 C   0  0  0  0  0  0  0  0  0  0  0  0
   17.6709   11.0928   10.5355 N   0  0  0  0  0  0  0  0  0  0  0  0
   18.1279   12.1769   11.2733 C   0  0  0  0  0  0  0  0  0  0  0  0
   17.3706   12.7933   12.0331 O   0  0  0  0  0  0  0  0  0  0  0  0
   19.6472   12.6476   11.1106 C   0  0  1  0  0  0  0  0  0  0  0  0
   19.9785   13.3689   12.4326 C   0  0  0  0  0  0  0  0  0  0  0  0
   20.5897   11.4472   10.8566 C   0  0  0  0  0  0  0  0  0  0  0  0
   22.0089   11.8163   10.8647 N   0  0  0  0  0  0  0  0  0  0  0  0
   22.2771   12.9170    9.9323 C   0  0  0  0  0  0  0  0  0  0  0  0
   21.2321   14.0526    9.9656 C   0  0  0  0  0  0  0  0  0  0  0  0
   19.8627   13.6014   10.0529 O   0  0  0  0  0  0  0  0  0  0  0  0
   15.9679    9.4518    9.8687 C   0  0  0  0  0  0  0  0  0  0  0  0
   16.3780    9.4450    8.5430 N   0  0  0  0  0  0  0  0  0  0  0  0
   15.0961    8.4310   10.2360 C   0  0  0  0  0  0  0  0  0  0  0  0
   14.6552    8.3293   11.5391 C   0  0  0  0  0  0  0  0  0  0  0  0
   13.6992    6.9390   11.9127 Cl  0  0  0  0  0  0  0  0  0  0  0  0
  1  2  1  0
  2  3  2  0
  3  4  1  0
  4  5  1  0
  5  6  1  0
  6  7  2  0
  6  8  1  0
  8  9  1  1
  8 10  1  0
 10 11  1  0
 11 12  1  0
 12 13  1  0
 13 14  1  0
  4 15  2  0
 15 16  1  0
 15 17  1  0
 17 18  2  0
 18 19  1  0
 18  2  1  0
 14  8  1  0
M  END
>  <ref_pdb>  (533) 
c0270a

>  <inchikey>  (533) 
VKJZMAGJJVKABM-CYBMUJFWSA-N

>  <original ID>  (533) 
VKJZMAGJJVKABM-CYBMUJFWSA-N

>  <generation_date>  (533) 
None

>  <alias>  (533) 
None

>  <tags>  (533) 
[]

>  <ref_mols>  (533) 
c0692a,c1116a

>  <ref_url>  (533) 
None

>  <submitter_name>  (533) 
None

>  <exports>  (533) 
nan

>  <original SMILES>  (533) 
Cc1cc(NC(=O)[C@@]2(C)CNCCO2)c(N)cc1Cl

>  <method>  (533) 
None

>  <submitter_email>  (533) 
None

>  <HIPPO ID>  (533) 
114898

$$$$
RBYAXOASKZTVPA-LBPRGKRZSA-N
     RDKit          3D

 19 20  0  0  0  0  0  0  0  0999 V2000
   20.0971   13.8835   10.6083 C   0  0  0  0  0  0  0  0  0  0  0  0
   19.8719   12.4962   11.2224 C   0  0  1  0  0  0  0  0  0  0  0  0
   18.3143   12.1785   11.2625 C   0  0  0  0  0  0  0  0  0  0  0  0
   17.5457   12.9438   11.8614 O   0  0  0  0  0  0  0  0  0  0  0  0
   17.8353   11.0463   10.6127 N   0  0  0  0  0  0  0  0  0  0  0  0
   16.5999   10.3657   10.8602 C   0  0  0  0  0  0  0  0  0  0  0  0
   16.1291    9.4663    9.8755 C   0  0  0  0  0  0  0  0  0  0  0  0
   16.6796    9.4250    8.6646 F   0  0  0  0  0  0  0  0  0  0  0  0
   15.1205    8.5411   10.1037 C   0  0  0  0  0  0  0  0  0  0  0  0
   14.5514    8.4922   11.3511 C   0  0  0  0  0  0  0  0  0  0  0  0
   14.8862    9.4791   12.2727 C   0  0  0  0  0  0  0  0  0  0  0  0
   14.1872    9.5828   13.4066 F   0  0  0  0  0  0  0  0  0  0  0  0
   15.8868   10.4332   12.0620 C   0  0  0  0  0  0  0  0  0  0  0  0
   16.2716   11.1985   13.1869 N   0  0  0  0  0  0  0  0  0  0  0  0
   20.7107   11.3637   10.5989 C   0  0  0  0  0  0  0  0  0  0  0  0
   22.1063   11.7495   10.3829 N   0  0  0  0  0  0  0  0  0  0  0  0
   22.6492   12.4358   11.5602 C   0  0  0  0  0  0  0  0  0  0  0  0
   21.7318   12.4081   12.7961 C   0  0  0  0  0  0  0  0  0  0  0  0
   20.3341   12.6928   12.5796 O   0  0  0  0  0  0  0  0  0  0  0  0
  2  1  1  6
  2  3  1  0
  3  4  2  0
  3  5  1  0
  5  6  1  0
  6  7  2  0
  7  8  1  0
  7  9  1  0
  9 10  2  0
 10 11  1  0
 11 12  1  0
 11 13  2  0
 13 14  1  0
  2 15  1  0
 15 16  1  0
 16 17  1  0
 17 18  1  0
 18 19  1  0
 19  2  1  0
 13  6  1  0
M  END
>  <ref_pdb>  (534) 
c0270a

>  <inchikey>  (534) 
RBYAXOASKZTVPA-LBPRGKRZSA-N

>  <original ID>  (534) 
RBYAXOASKZTVPA-LBPRGKRZSA-N

>  <generation_date>  (534) 
None

>  <alias>  (534) 
None

>  <tags>  (534) 
[]

>  <ref_mols>  (534) 
c0692a,c1116a

>  <ref_url>  (534) 
None

>  <submitter_name>  (534) 
None

>  <exports>  (534) 
nan

>  <original SMILES>  (534) 
C[C@@]1(C(=O)Nc2c(F)ccc(F)c2N)CNCCO1

>  <method>  (534) 
None

>  <submitter_email>  (534) 
None

>  <HIPPO ID>  (534) 
114909

$$$$
UBKDKUVJAWYDOR-AWEZNQCLSA-N
     RDKit          3D

 19 20  0  0  0  0  0  0  0  0999 V2000
   14.4321   10.0611   14.0461 C   0  0  0  0  0  0  0  0  0  0  0  0
   15.0472    9.7488   12.7296 C   0  0  0  0  0  0  0  0  0  0  0  0
   14.6299    8.6869   11.9348 C   0  0  0  0  0  0  0  0  0  0  0  0
   14.9559    8.6655   10.5847 C   0  0  0  0  0  0  0  0  0  0  0  0
   14.1899    7.7448    9.6743 C   0  0  0  0  0  0  0  0  0  0  0  0
   15.9555    9.5350   10.1187 C   0  0  0  0  0  0  0  0  0  0  0  0
   16.2412    9.5118    8.7651 N   0  0  0  0  0  0  0  0  0  0  0  0
   16.5471   10.4779   10.9921 C   0  0  0  0  0  0  0  0  0  0  0  0
   17.7470   11.1621   10.6398 N   0  0  0  0  0  0  0  0  0  0  0  0
   18.2893   12.2473   11.3318 C   0  0  0  0  0  0  0  0  0  0  0  0
   17.5781   12.9951   12.0133 O   0  0  0  0  0  0  0  0  0  0  0  0
   19.8525   12.5241   11.2330 C   0  0  2  0  0  0  0  0  0  0  0  0
   20.1166   13.8790   10.5760 C   0  0  0  0  0  0  0  0  0  0  0  0
   20.6096   11.3291   10.6298 C   0  0  0  0  0  0  0  0  0  0  0  0
   22.0558   11.4585   10.5074 N   0  0  0  0  0  0  0  0  0  0  0  0
   22.6140   12.3626   11.5083 C   0  0  0  0  0  0  0  0  0  0  0  0
   21.7471   12.4527   12.7740 C   0  0  0  0  0  0  0  0  0  0  0  0
   20.3447   12.7299   12.5788 O   0  0  0  0  0  0  0  0  0  0  0  0
   16.0173   10.6236   12.2632 C   0  0  0  0  0  0  0  0  0  0  0  0
  1  2  1  0
  2  3  2  0
  3  4  1  0
  4  5  1  0
  4  6  2  0
  6  7  1  0
  6  8  1  0
  8  9  1  0
  9 10  1  0
 10 11  2  0
 10 12  1  0
 12 13  1  6
 12 14  1  0
 14 15  1  0
 15 16  1  0
 16 17  1  0
 17 18  1  0
  8 19  2  0
 19  2  1  0
 18 12  1  0
M  END
>  <ref_pdb>  (535) 
c0270a

>  <inchikey>  (535) 
UBKDKUVJAWYDOR-AWEZNQCLSA-N

>  <original ID>  (535) 
UBKDKUVJAWYDOR-AWEZNQCLSA-N

>  <generation_date>  (535) 
None

>  <alias>  (535) 
None

>  <tags>  (535) 
[]

>  <ref_mols>  (535) 
c0692a,c1116a

>  <ref_url>  (535) 
None

>  <submitter_name>  (535) 
None

>  <exports>  (535) 
nan

>  <original SMILES>  (535) 
Cc1cc(C)c(N)c(NC(=O)[C@]2(C)CNCCO2)c1

>  <method>  (535) 
None

>  <submitter_email>  (535) 
None

>  <HIPPO ID>  (535) 
114928

$$$$
UBKDKUVJAWYDOR-CQSZACIVSA-N
     RDKit          3D

 19 20  0  0  0  0  0  0  0  0999 V2000
   14.4576    9.8534   14.0278 C   0  0  0  0  0  0  0  0  0  0  0  0
   15.0418    9.6175   12.6822 C   0  0  0  0  0  0  0  0  0  0  0  0
   14.6007    8.6119   11.8319 C   0  0  0  0  0  0  0  0  0  0  0  0
   14.9028    8.6702   10.4753 C   0  0  0  0  0  0  0  0  0  0  0  0
   14.1460    7.7736    9.5396 C   0  0  0  0  0  0  0  0  0  0  0  0
   15.8597    9.5923   10.0277 C   0  0  0  0  0  0  0  0  0  0  0  0
   16.2452    9.5306    8.6879 N   0  0  0  0  0  0  0  0  0  0  0  0
   16.4989   10.4453   10.9499 C   0  0  0  0  0  0  0  0  0  0  0  0
   17.6702   11.1673   10.6005 N   0  0  0  0  0  0  0  0  0  0  0  0
   18.1661   12.2527   11.3128 C   0  0  0  0  0  0  0  0  0  0  0  0
   17.4191   12.9396   12.0214 O   0  0  0  0  0  0  0  0  0  0  0  0
   19.6911   12.6491   11.1610 C   0  0  1  0  0  0  0  0  0  0  0  0
   20.1530   13.2430   12.5159 C   0  0  0  0  0  0  0  0  0  0  0  0
   20.5771   11.4372   10.7496 C   0  0  0  0  0  0  0  0  0  0  0  0
   21.8528   11.7491   10.1159 N   0  0  0  0  0  0  0  0  0  0  0  0
   22.2682   13.1287   10.2802 C   0  0  0  0  0  0  0  0  0  0  0  0
   21.1573   14.1268    9.9043 C   0  0  0  0  0  0  0  0  0  0  0  0
   19.8073   13.6985   10.1784 O   0  0  0  0  0  0  0  0  0  0  0  0
   16.0096   10.5074   12.2459 C   0  0  0  0  0  0  0  0  0  0  0  0
  1  2  1  0
  2  3  2  0
  3  4  1  0
  4  5  1  0
  4  6  2  0
  6  7  1  0
  6  8  1  0
  8  9  1  0
  9 10  1  0
 10 11  2  0
 10 12  1  0
 12 13  1  1
 12 14  1  0
 14 15  1  0
 15 16  1  0
 16 17  1  0
 17 18  1  0
  8 19  2  0
 19  2  1  0
 18 12  1  0
M  END
>  <ref_pdb>  (536) 
c0270a

>  <inchikey>  (536) 
UBKDKUVJAWYDOR-CQSZACIVSA-N

>  <original ID>  (536) 
UBKDKUVJAWYDOR-CQSZACIVSA-N

>  <generation_date>  (536) 
None

>  <alias>  (536) 
None

>  <tags>  (536) 
[]

>  <ref_mols>  (536) 
c0692a,c1116a

>  <ref_url>  (536) 
None

>  <submitter_name>  (536) 
None

>  <exports>  (536) 
nan

>  <original SMILES>  (536) 
Cc1cc(C)c(N)c(NC(=O)[C@@]2(C)CNCCO2)c1

>  <method>  (536) 
None

>  <submitter_email>  (536) 
None

>  <HIPPO ID>  (536) 
114929

$$$$
FVUQOOQCHAPXET-ZDUSSCGKSA-N
     RDKit          3D

 19 20  0  0  0  0  0  0  0  0999 V2000
   13.8392    7.1995   12.1427 C   0  0  0  0  0  0  0  0  0  0  0  0
   14.6121    8.4124   11.7228 C   0  0  0  0  0  0  0  0  0  0  0  0
   15.1332    8.4480   10.4483 C   0  0  0  0  0  0  0  0  0  0  0  0
   15.9883    9.4825   10.0653 C   0  0  0  0  0  0  0  0  0  0  0  0
   16.5258    9.3755    8.8027 N   0  0  0  0  0  0  0  0  0  0  0  0
   16.4472   10.4314   10.9991 C   0  0  0  0  0  0  0  0  0  0  0  0
   17.6412   11.1687   10.7206 N   0  0  0  0  0  0  0  0  0  0  0  0
   18.1472   12.2319   11.4675 C   0  0  0  0  0  0  0  0  0  0  0  0
   17.4057   12.9071   12.1902 O   0  0  0  0  0  0  0  0  0  0  0  0
   19.7082   12.5692   11.3901 C   0  0  2  0  0  0  0  0  0  0  0  0
   19.9616   13.9111   10.7116 C   0  0  0  0  0  0  0  0  0  0  0  0
   20.5232   11.4168   10.7738 C   0  0  0  0  0  0  0  0  0  0  0  0
   21.9634   11.6893   10.7512 N   0  0  0  0  0  0  0  0  0  0  0  0
   22.4089   11.8753   12.1398 C   0  0  0  0  0  0  0  0  0  0  0  0
   21.5885   12.9369   12.8869 C   0  0  0  0  0  0  0  0  0  0  0  0
   20.1649   12.7579   12.7528 O   0  0  0  0  0  0  0  0  0  0  0  0
   15.7844   10.5055   12.2094 C   0  0  0  0  0  0  0  0  0  0  0  0
   14.8644    9.5163   12.5412 C   0  0  0  0  0  0  0  0  0  0  0  0
   14.1981    9.6799   13.6833 F   0  0  0  0  0  0  0  0  0  0  0  0
  1  2  1  0
  2  3  2  0
  3  4  1  0
  4  5  1  0
  4  6  2  0
  6  7  1  0
  7  8  1  0
  8  9  2  0
  8 10  1  0
 10 11  1  6
 10 12  1  0
 12 13  1  0
 13 14  1  0
 14 15  1  0
 15 16  1  0
  6 17  1  0
 17 18  2  0
 18 19  1  0
 18  2  1  0
 16 10  1  0
M  END
>  <ref_pdb>  (537) 
c0270a

>  <inchikey>  (537) 
FVUQOOQCHAPXET-ZDUSSCGKSA-N

>  <original ID>  (537) 
FVUQOOQCHAPXET-ZDUSSCGKSA-N

>  <generation_date>  (537) 
None

>  <alias>  (537) 
None

>  <tags>  (537) 
[]

>  <ref_mols>  (537) 
c0692a,c1116a

>  <ref_url>  (537) 
None

>  <submitter_name>  (537) 
None

>  <exports>  (537) 
nan

>  <original SMILES>  (537) 
Cc1cc(N)c(NC(=O)[C@]2(C)CNCCO2)cc1F

>  <method>  (537) 
None

>  <submitter_email>  (537) 
None

>  <HIPPO ID>  (537) 
114939

$$$$
FVUQOOQCHAPXET-CYBMUJFWSA-N
     RDKit          3D

 19 20  0  0  0  0  0  0  0  0999 V2000
   13.2995    9.2863    9.0937 C   0  0  0  0  0  0  0  0  0  0  0  0
   14.3961    9.9365    9.8873 C   0  0  0  0  0  0  0  0  0  0  0  0
   15.6325    9.3708    9.7213 C   0  0  0  0  0  0  0  0  0  0  0  0
   16.6881    9.9648   10.3660 C   0  0  0  0  0  0  0  0  0  0  0  0
   17.9603    9.9809    9.7704 N   0  0  0  0  0  0  0  0  0  0  0  0
   16.5631   11.0062   11.2913 C   0  0  0  0  0  0  0  0  0  0  0  0
   17.8387   11.4938   11.6374 N   0  0  0  0  0  0  0  0  0  0  0  0
   18.2032   12.8061   11.7097 C   0  0  0  0  0  0  0  0  0  0  0  0
   17.3824   13.6837   11.9773 O   0  0  0  0  0  0  0  0  0  0  0  0
   19.7374   13.1203   11.4215 C   0  0  1  0  0  0  0  0  0  0  0  0
   20.2440   13.7741   12.7086 C   0  0  0  0  0  0  0  0  0  0  0  0
   20.6310   11.9081   11.0322 C   0  0  0  0  0  0  0  0  0  0  0  0
   22.0430   12.2687   10.8651 N   0  0  0  0  0  0  0  0  0  0  0  0
   22.2070   13.3721    9.9158 C   0  0  0  0  0  0  0  0  0  0  0  0
   21.1530   14.4927   10.0287 C   0  0  0  0  0  0  0  0  0  0  0  0
   19.8158   14.0444   10.3074 O   0  0  0  0  0  0  0  0  0  0  0  0
   15.3440   11.5596   11.5178 C   0  0  0  0  0  0  0  0  0  0  0  0
   14.2968   11.0630   10.7511 C   0  0  0  0  0  0  0  0  0  0  0  0
   13.1790   11.7899   10.8056 F   0  0  0  0  0  0  0  0  0  0  0  0
  1  2  1  0
  2  3  2  0
  3  4  1  0
  4  5  1  0
  4  6  2  0
  6  7  1  0
  7  8  1  0
  8  9  2  0
  8 10  1  0
 10 11  1  1
 10 12  1  0
 12 13  1  0
 13 14  1  0
 14 15  1  0
 15 16  1  0
  6 17  1  0
 17 18  2  0
 18 19  1  0
 18  2  1  0
 16 10  1  0
M  END
>  <ref_pdb>  (538) 
c0270a

>  <inchikey>  (538) 
FVUQOOQCHAPXET-CYBMUJFWSA-N

>  <original ID>  (538) 
FVUQOOQCHAPXET-CYBMUJFWSA-N

>  <generation_date>  (538) 
None

>  <alias>  (538) 
None

>  <tags>  (538) 
[]

>  <ref_mols>  (538) 
c0692a,c1116a

>  <ref_url>  (538) 
None

>  <submitter_name>  (538) 
None

>  <exports>  (538) 
nan

>  <original SMILES>  (538) 
Cc1cc(N)c(NC(=O)[C@@]2(C)CNCCO2)cc1F

>  <method>  (538) 
None

>  <submitter_email>  (538) 
None

>  <HIPPO ID>  (538) 
114940

$$$$
ZQTHFOYGLKRHHB-ZDUSSCGKSA-N
     RDKit          3D

 19 20  0  0  0  0  0  0  0  0999 V2000
   14.3421    9.8327   13.8908 C   0  0  0  0  0  0  0  0  0  0  0  0
   14.9921    9.5812   12.5795 C   0  0  0  0  0  0  0  0  0  0  0  0
   15.9709   10.4965   12.1882 C   0  0  0  0  0  0  0  0  0  0  0  0
   16.5638   10.4075   10.9391 C   0  0  0  0  0  0  0  0  0  0  0  0
   17.7487   11.1456   10.6398 N   0  0  0  0  0  0  0  0  0  0  0  0
   18.2267   12.2430   11.3587 C   0  0  0  0  0  0  0  0  0  0  0  0
   17.4634   12.9528   12.0241 O   0  0  0  0  0  0  0  0  0  0  0  0
   19.7840   12.5696   11.3267 C   0  0  2  0  0  0  0  0  0  0  0  0
   20.0658   13.8976   10.6273 C   0  0  0  0  0  0  0  0  0  0  0  0
   20.6168   11.4010   10.7672 C   0  0  0  0  0  0  0  0  0  0  0  0
   22.0575   11.6684   10.7990 N   0  0  0  0  0  0  0  0  0  0  0  0
   22.4465   11.8810   12.2007 C   0  0  0  0  0  0  0  0  0  0  0  0
   21.5991   12.9592   12.8923 C   0  0  0  0  0  0  0  0  0  0  0  0
   20.1821   12.7757   12.7070 O   0  0  0  0  0  0  0  0  0  0  0  0
   16.0666    9.4424   10.0375 C   0  0  0  0  0  0  0  0  0  0  0  0
   16.3422    9.4635    8.6888 N   0  0  0  0  0  0  0  0  0  0  0  0
   15.1171    8.5063   10.4370 C   0  0  0  0  0  0  0  0  0  0  0  0
   14.6284    8.5461   11.7182 C   0  0  0  0  0  0  0  0  0  0  0  0
   13.7280    7.6141   12.0626 F   0  0  0  0  0  0  0  0  0  0  0  0
  1  2  1  0
  2  3  2  0
  3  4  1  0
  4  5  1  0
  5  6  1  0
  6  7  2  0
  6  8  1  0
  8  9  1  6
  8 10  1  0
 10 11  1  0
 11 12  1  0
 12 13  1  0
 13 14  1  0
  4 15  2  0
 15 16  1  0
 15 17  1  0
 17 18  2  0
 18 19  1  0
 18  2  1  0
 14  8  1  0
M  END
>  <ref_pdb>  (539) 
c0270a

>  <inchikey>  (539) 
ZQTHFOYGLKRHHB-ZDUSSCGKSA-N

>  <original ID>  (539) 
ZQTHFOYGLKRHHB-ZDUSSCGKSA-N

>  <generation_date>  (539) 
None

>  <alias>  (539) 
None

>  <tags>  (539) 
[]

>  <ref_mols>  (539) 
c0692a,c1116a

>  <ref_url>  (539) 
None

>  <submitter_name>  (539) 
None

>  <exports>  (539) 
nan

>  <original SMILES>  (539) 
Cc1cc(NC(=O)[C@]2(C)CNCCO2)c(N)cc1F

>  <method>  (539) 
None

>  <submitter_email>  (539) 
None

>  <HIPPO ID>  (539) 
114941

$$$$
ZQTHFOYGLKRHHB-CYBMUJFWSA-N
     RDKit          3D

 19 20  0  0  0  0  0  0  0  0999 V2000
   14.3712    9.5752   13.8375 C   0  0  0  0  0  0  0  0  0  0  0  0
   14.9779    9.4294   12.4896 C   0  0  0  0  0  0  0  0  0  0  0  0
   15.9509   10.3674   12.1446 C   0  0  0  0  0  0  0  0  0  0  0  0
   16.5164   10.3762   10.8791 C   0  0  0  0  0  0  0  0  0  0  0  0
   17.6636   11.1705   10.5915 N   0  0  0  0  0  0  0  0  0  0  0  0
   18.1516   12.2106   11.3779 C   0  0  0  0  0  0  0  0  0  0  0  0
   17.4390   12.7758   12.2160 O   0  0  0  0  0  0  0  0  0  0  0  0
   19.6562   12.6959   11.1737 C   0  0  1  0  0  0  0  0  0  0  0  0
   20.0441   13.4482   12.4588 C   0  0  0  0  0  0  0  0  0  0  0  0
   20.6119   11.4929   10.9334 C   0  0  0  0  0  0  0  0  0  0  0  0
   21.7645   11.7367   10.0743 N   0  0  0  0  0  0  0  0  0  0  0  0
   22.2312   13.1099   10.1138 C   0  0  0  0  0  0  0  0  0  0  0  0
   21.1080   14.1374    9.8777 C   0  0  0  0  0  0  0  0  0  0  0  0
   19.7729   13.6506   10.1099 O   0  0  0  0  0  0  0  0  0  0  0  0
   15.9811    9.4966    9.9168 C   0  0  0  0  0  0  0  0  0  0  0  0
   16.4032    9.4639    8.5944 N   0  0  0  0  0  0  0  0  0  0  0  0
   15.0619    8.5133   10.2717 C   0  0  0  0  0  0  0  0  0  0  0  0
   14.5874    8.4666   11.5597 C   0  0  0  0  0  0  0  0  0  0  0  0
   13.6832    7.5227   11.8592 F   0  0  0  0  0  0  0  0  0  0  0  0
  1  2  1  0
  2  3  2  0
  3  4  1  0
  4  5  1  0
  5  6  1  0
  6  7  2  0
  6  8  1  0
  8  9  1  1
  8 10  1  0
 10 11  1  0
 11 12  1  0
 12 13  1  0
 13 14  1  0
  4 15  2  0
 15 16  1  0
 15 17  1  0
 17 18  2  0
 18 19  1  0
 18  2  1  0
 14  8  1  0
M  END
>  <ref_pdb>  (540) 
c0270a

>  <inchikey>  (540) 
ZQTHFOYGLKRHHB-CYBMUJFWSA-N

>  <original ID>  (540) 
ZQTHFOYGLKRHHB-CYBMUJFWSA-N

>  <generation_date>  (540) 
None

>  <alias>  (540) 
None

>  <tags>  (540) 
[]

>  <ref_mols>  (540) 
c0692a,c1116a

>  <ref_url>  (540) 
None

>  <submitter_name>  (540) 
None

>  <exports>  (540) 
nan

>  <original SMILES>  (540) 
Cc1cc(NC(=O)[C@@]2(C)CNCCO2)c(N)cc1F

>  <method>  (540) 
None

>  <submitter_email>  (540) 
None

>  <HIPPO ID>  (540) 
114942

$$$$
FVNNYEASRNVCBO-NSHDSACASA-N
     RDKit          3D

 19 19  0  0  0  0  0  0  0  0999 V2000
   21.7503   11.3496   10.4573 C   0  0  0  0  0  0  0  0  0  0  0  0
   20.3342   11.4364   10.4334 O   0  0  0  0  0  0  0  0  0  0  0  0
   19.7459   12.5313   11.1229 C   0  0  2  0  0  0  0  0  0  0  0  0
   20.1513   13.8733   10.4862 C   0  0  0  0  0  0  0  0  0  0  0  0
   20.1137   12.8564   12.5689 C   0  0  0  0  0  0  0  0  0  0  0  0
   19.3894   13.4709   13.3335 O   0  0  0  0  0  0  0  0  0  0  0  0
   21.3707   12.5429   12.9274 O   0  0  0  0  0  0  0  0  0  0  0  0
   18.1949   12.2526   11.1128 C   0  0  0  0  0  0  0  0  0  0  0  0
   17.3766   13.0468   11.5876 O   0  0  0  0  0  0  0  0  0  0  0  0
   17.7951   11.0394   10.5645 N   0  0  0  0  0  0  0  0  0  0  0  0
   16.5726   10.3563   10.8059 C   0  0  0  0  0  0  0  0  0  0  0  0
   16.1119    9.4301    9.8472 C   0  0  0  0  0  0  0  0  0  0  0  0
   16.6470    9.3765    8.6293 F   0  0  0  0  0  0  0  0  0  0  0  0
   15.1114    8.5049   10.1084 C   0  0  0  0  0  0  0  0  0  0  0  0
   14.5510    8.4830   11.3624 C   0  0  0  0  0  0  0  0  0  0  0  0
   14.8845    9.4935   12.2596 C   0  0  0  0  0  0  0  0  0  0  0  0
   14.1976    9.6174   13.3992 F   0  0  0  0  0  0  0  0  0  0  0  0
   15.8716   10.4506   12.0138 C   0  0  0  0  0  0  0  0  0  0  0  0
   16.2755   11.2498   13.1136 N   0  0  0  0  0  0  0  0  0  0  0  0
  1  2  1  0
  3  2  1  0
  3  4  1  6
  3  5  1  0
  5  6  2  0
  5  7  1  0
  3  8  1  0
  8  9  2  0
  8 10  1  0
 10 11  1  0
 11 12  2  0
 12 13  1  0
 12 14  1  0
 14 15  2  0
 15 16  1  0
 16 17  1  0
 16 18  2  0
 18 19  1  0
 18 11  1  0
M  END
>  <ref_pdb>  (541) 
c0270a

>  <inchikey>  (541) 
FVNNYEASRNVCBO-NSHDSACASA-N

>  <original ID>  (541) 
FVNNYEASRNVCBO-NSHDSACASA-N

>  <generation_date>  (541) 
None

>  <alias>  (541) 
None

>  <tags>  (541) 
[]

>  <ref_mols>  (541) 
c0692a,c1116a

>  <ref_url>  (541) 
None

>  <submitter_name>  (541) 
None

>  <exports>  (541) 
nan

>  <original SMILES>  (541) 
CO[C@](C)(C(=O)O)C(=O)Nc1c(F)ccc(F)c1N

>  <method>  (541) 
None

>  <submitter_email>  (541) 
None

>  <HIPPO ID>  (541) 
114990

$$$$
FVNNYEASRNVCBO-LLVKDONJSA-N
     RDKit          3D

 19 19  0  0  0  0  0  0  0  0999 V2000
   21.8606   11.0799   10.5100 C   0  0  0  0  0  0  0  0  0  0  0  0
   20.4638   11.2207   10.7046 O   0  0  0  0  0  0  0  0  0  0  0  0
   20.0013   12.4957   11.1620 C   0  0  1  0  0  0  0  0  0  0  0  0
   20.5853   12.8593   12.5373 C   0  0  0  0  0  0  0  0  0  0  0  0
   20.3740   13.7082   10.2873 C   0  0  0  0  0  0  0  0  0  0  0  0
   19.6764   14.6203    9.8875 O   0  0  0  0  0  0  0  0  0  0  0  0
   21.6841   13.7571    9.9681 O   0  0  0  0  0  0  0  0  0  0  0  0
   18.4617   12.2953   11.3115 C   0  0  0  0  0  0  0  0  0  0  0  0
   17.7504   13.1492   11.8458 O   0  0  0  0  0  0  0  0  0  0  0  0
   17.9738   11.0737   10.8311 N   0  0  0  0  0  0  0  0  0  0  0  0
   16.6037   10.7172   10.7202 C   0  0  0  0  0  0  0  0  0  0  0  0
   16.2228    9.8509    9.6811 C   0  0  0  0  0  0  0  0  0  0  0  0
   17.1204    9.3121    8.8920 F   0  0  0  0  0  0  0  0  0  0  0  0
   14.9374    9.6391    9.2641 C   0  0  0  0  0  0  0  0  0  0  0  0
   14.0054   10.4511    9.8118 C   0  0  0  0  0  0  0  0  0  0  0  0
   14.3182   11.2128   10.9413 C   0  0  0  0  0  0  0  0  0  0  0  0
   13.3693   11.9613   11.5071 F   0  0  0  0  0  0  0  0  0  0  0  0
   15.5942   11.2861   11.4761 C   0  0  0  0  0  0  0  0  0  0  0  0
   15.7737   11.7887   12.7855 N   0  0  0  0  0  0  0  0  0  0  0  0
  1  2  1  0
  3  2  1  0
  3  4  1  1
  3  5  1  0
  5  6  2  0
  5  7  1  0
  3  8  1  0
  8  9  2  0
  8 10  1  0
 10 11  1  0
 11 12  2  0
 12 13  1  0
 12 14  1  0
 14 15  2  0
 15 16  1  0
 16 17  1  0
 16 18  2  0
 18 19  1  0
 18 11  1  0
M  END
>  <ref_pdb>  (542) 
c0270a

>  <inchikey>  (542) 
FVNNYEASRNVCBO-LLVKDONJSA-N

>  <original ID>  (542) 
FVNNYEASRNVCBO-LLVKDONJSA-N

>  <generation_date>  (542) 
None

>  <alias>  (542) 
None

>  <tags>  (542) 
[]

>  <ref_mols>  (542) 
c0692a,c1116a

>  <ref_url>  (542) 
None

>  <submitter_name>  (542) 
None

>  <exports>  (542) 
nan

>  <original SMILES>  (542) 
CO[C@@](C)(C(=O)O)C(=O)Nc1c(F)ccc(F)c1N

>  <method>  (542) 
None

>  <submitter_email>  (542) 
None

>  <HIPPO ID>  (542) 
114991

$$$$
RCJRKHDICOGCOH-CYBMUJFWSA-N
     RDKit          3D

 19 20  0  0  0  0  0  0  0  0999 V2000
   13.7330   13.4082   15.2808 C   0  0  0  0  0  0  0  0  0  0  0  0
   13.8156   12.5126   14.1709 O   0  0  0  0  0  0  0  0  0  0  0  0
   14.4357   13.1157   13.0190 C   0  0  1  0  0  0  0  0  0  0  0  0
   13.3674   13.2358   11.9646 C   0  0  0  0  0  0  0  0  0  0  0  0
   15.2701   14.3285   13.4193 C   0  0  0  0  0  0  0  0  0  0  0  0
   16.3666   14.2347   13.9610 O   0  0  0  0  0  0  0  0  0  0  0  0
   14.6723   15.5269   13.3784 O   0  0  0  0  0  0  0  0  0  0  0  0
   15.4193   12.2501   12.2532 C   0  0  0  0  0  0  0  0  0  0  0  0
   16.1168   12.7235   11.3648 O   0  0  0  0  0  0  0  0  0  0  0  0
   15.3876   10.9317   12.6111 N   0  0  0  0  0  0  0  0  0  0  0  0
   16.0437   10.6342   13.8592 C   0  0  0  0  0  0  0  0  0  0  0  0
   15.5909    9.3114   14.4294 C   0  0  0  0  0  0  0  0  0  0  0  0
   15.8157    8.2375   13.4688 N   0  0  0  0  0  0  0  0  0  0  0  0
   15.3542    8.5464   12.1684 C   0  0  0  0  0  0  0  0  0  0  0  0
   15.0903    7.4990   11.2920 C   0  0  0  0  0  0  0  0  0  0  0  0
   14.6438    7.7449    9.9977 C   0  0  0  0  0  0  0  0  0  0  0  0
   14.5667    9.0366    9.5126 C   0  0  0  0  0  0  0  0  0  0  0  0
   14.8804   10.0927   10.3558 C   0  0  0  0  0  0  0  0  0  0  0  0
   15.2461    9.8645   11.6884 C   0  0  0  0  0  0  0  0  0  0  0  0
  1  2  1  0
  3  2  1  0
  3  4  1  6
  3  5  1  0
  5  6  2  0
  5  7  1  0
  3  8  1  0
  8  9  2  0
  8 10  1  0
 10 11  1  0
 11 12  1  0
 12 13  1  0
 13 14  1  0
 14 15  2  0
 15 16  1  0
 16 17  2  0
 17 18  1  0
 18 19  2  0
 19 10  1  0
 19 14  1  0
M  END
>  <ref_pdb>  (543) 
c0270a

>  <inchikey>  (543) 
RCJRKHDICOGCOH-CYBMUJFWSA-N

>  <original ID>  (543) 
RCJRKHDICOGCOH-CYBMUJFWSA-N

>  <generation_date>  (543) 
None

>  <alias>  (543) 
None

>  <tags>  (543) 
[]

>  <ref_mols>  (543) 
c0692a,c1116a

>  <ref_url>  (543) 
None

>  <submitter_name>  (543) 
None

>  <exports>  (543) 
nan

>  <original SMILES>  (543) 
CO[C@@](C)(C(=O)O)C(=O)N1CCNc2ccccc21

>  <method>  (543) 
None

>  <submitter_email>  (543) 
None

>  <HIPPO ID>  (543) 
115085

$$$$
PQEQILYYKWEDTD-LBPRGKRZSA-N
     RDKit          3D

 19 19  0  0  0  0  0  0  0  0999 V2000
   14.8916    9.8598    8.5974 C   0  0  0  0  0  0  0  0  0  0  0  0
   16.1946    9.3398    8.9859 N   0  0  0  0  0  0  0  0  0  0  0  0
   16.1825    9.3135   10.3980 C   0  0  0  0  0  0  0  0  0  0  0  0
   15.3273    8.3608   10.9799 C   0  0  0  0  0  0  0  0  0  0  0  0
   14.8435    8.5721   12.2518 C   0  0  0  0  0  0  0  0  0  0  0  0
   15.1749    9.7607   12.8858 C   0  0  0  0  0  0  0  0  0  0  0  0
   14.3803   10.2583   14.4881 Br  0  0  0  0  0  0  0  0  0  0  0  0
   16.0987   10.6545   12.3668 C   0  0  0  0  0  0  0  0  0  0  0  0
   16.6717   10.4071   11.1381 C   0  0  0  0  0  0  0  0  0  0  0  0
   17.7860   11.1536   10.6911 N   0  0  0  0  0  0  0  0  0  0  0  0
   18.2421   12.3479   11.2533 C   0  0  0  0  0  0  0  0  0  0  0  0
   17.4801   13.1353   11.8166 O   0  0  0  0  0  0  0  0  0  0  0  0
   19.7832   12.6002   11.1381 C   0  0  2  0  0  0  0  0  0  0  0  0
   20.1663   13.9413   10.4919 C   0  0  0  0  0  0  0  0  0  0  0  0
   20.2872   11.5169   10.3482 O   0  0  0  0  0  0  0  0  0  0  0  0
   21.6999   11.3396   10.3571 C   0  0  0  0  0  0  0  0  0  0  0  0
   20.3855   12.7875   12.5316 C   0  0  0  0  0  0  0  0  0  0  0  0
   21.3742   12.2155   12.9596 O   0  0  0  0  0  0  0  0  0  0  0  0
   19.8044   13.7566   13.2648 O   0  0  0  0  0  0  0  0  0  0  0  0
  1  2  1  0
  2  3  1  0
  3  4  2  0
  4  5  1  0
  5  6  2  0
  6  7  1  0
  6  8  1  0
  8  9  2  0
  9 10  1  0
 10 11  1  0
 11 12  2  0
 11 13  1  0
 13 14  1  6
 13 15  1  0
 15 16  1  0
 13 17  1  0
 17 18  2  0
 17 19  1  0
  9  3  1  0
M  END
>  <ref_pdb>  (544) 
c0270a

>  <inchikey>  (544) 
PQEQILYYKWEDTD-LBPRGKRZSA-N

>  <original ID>  (544) 
PQEQILYYKWEDTD-LBPRGKRZSA-N

>  <generation_date>  (544) 
None

>  <alias>  (544) 
None

>  <tags>  (544) 
[]

>  <ref_mols>  (544) 
c0692a,c1116a

>  <ref_url>  (544) 
None

>  <submitter_name>  (544) 
None

>  <exports>  (544) 
['/opt/xchem-fragalysis-2/maxwin/CHIKV_HIPPO/hippo_prod/CHIKV_prod11_recipes/Recipe_1GERJCJ_poses.sdf']

>  <original SMILES>  (544) 
CNc1ccc(Br)cc1NC(=O)[C@](C)(OC)C(=O)O

>  <method>  (544) 
None

>  <submitter_email>  (544) 
None

>  <HIPPO ID>  (544) 
115099

$$$$
PQEQILYYKWEDTD-GFCCVEGCSA-N
     RDKit          3D

 19 19  0  0  0  0  0  0  0  0999 V2000
   14.9073    9.9103    8.5924 C   0  0  0  0  0  0  0  0  0  0  0  0
   16.2035    9.3781    8.9821 N   0  0  0  0  0  0  0  0  0  0  0  0
   16.1706    9.3044   10.3905 C   0  0  0  0  0  0  0  0  0  0  0  0
   15.3102    8.3230   10.9196 C   0  0  0  0  0  0  0  0  0  0  0  0
   14.8165    8.4655   12.1965 C   0  0  0  0  0  0  0  0  0  0  0  0
   15.1457    9.6172   12.8937 C   0  0  0  0  0  0  0  0  0  0  0  0
   14.3408   10.0262   14.5177 Br  0  0  0  0  0  0  0  0  0  0  0  0
   16.0702   10.5387   12.4239 C   0  0  0  0  0  0  0  0  0  0  0  0
   16.6519   10.3647   11.1845 C   0  0  0  0  0  0  0  0  0  0  0  0
   17.7568   11.1524   10.7703 N   0  0  0  0  0  0  0  0  0  0  0  0
   18.2504   12.2781   11.4355 C   0  0  0  0  0  0  0  0  0  0  0  0
   17.5519   12.9659   12.1823 O   0  0  0  0  0  0  0  0  0  0  0  0
   19.7568   12.6222   11.1795 C   0  0  1  0  0  0  0  0  0  0  0  0
   20.5492   12.7282   12.4907 C   0  0  0  0  0  0  0  0  0  0  0  0
   20.2752   11.5648   10.3641 O   0  0  0  0  0  0  0  0  0  0  0  0
   21.6952   11.5339   10.2320 C   0  0  0  0  0  0  0  0  0  0  0  0
   19.8663   14.0431   10.5930 C   0  0  0  0  0  0  0  0  0  0  0  0
   20.1842   14.3488    9.4522 O   0  0  0  0  0  0  0  0  0  0  0  0
   19.5972   15.0305   11.4760 O   0  0  0  0  0  0  0  0  0  0  0  0
  1  2  1  0
  2  3  1  0
  3  4  2  0
  4  5  1  0
  5  6  2  0
  6  7  1  0
  6  8  1  0
  8  9  2  0
  9 10  1  0
 10 11  1  0
 11 12  2  0
 11 13  1  0
 13 14  1  1
 13 15  1  0
 15 16  1  0
 13 17  1  0
 17 18  2  0
 17 19  1  0
  9  3  1  0
M  END
>  <ref_pdb>  (545) 
c0270a

>  <inchikey>  (545) 
PQEQILYYKWEDTD-GFCCVEGCSA-N

>  <original ID>  (545) 
PQEQILYYKWEDTD-GFCCVEGCSA-N

>  <generation_date>  (545) 
None

>  <alias>  (545) 
None

>  <tags>  (545) 
[]

>  <ref_mols>  (545) 
c0692a,c1116a

>  <ref_url>  (545) 
None

>  <submitter_name>  (545) 
None

>  <exports>  (545) 
['/opt/xchem-fragalysis-2/maxwin/CHIKV_HIPPO/hippo_prod/CHIKV_prod11_recipes/Recipe_1GERJCJ_poses.sdf']

>  <original SMILES>  (545) 
CNc1ccc(Br)cc1NC(=O)[C@@](C)(OC)C(=O)O

>  <method>  (545) 
None

>  <submitter_email>  (545) 
None

>  <HIPPO ID>  (545) 
115100

$$$$
YDEDXTAPAYAZGC-NSHDSACASA-N
     RDKit          3D

 19 19  0  0  0  0  0  0  0  0999 V2000
   21.7944   11.4163   10.4304 C   0  0  0  0  0  0  0  0  0  0  0  0
   20.3817   11.5500   10.4663 O   0  0  0  0  0  0  0  0  0  0  0  0
   19.8584   12.6582   11.1975 C   0  0  2  0  0  0  0  0  0  0  0  0
   20.2285   13.9798   10.5063 C   0  0  0  0  0  0  0  0  0  0  0  0
   20.3065   12.9688   12.6312 C   0  0  0  0  0  0  0  0  0  0  0  0
   19.7447   13.7567   13.3779 O   0  0  0  0  0  0  0  0  0  0  0  0
   21.4693   12.3941   12.9892 O   0  0  0  0  0  0  0  0  0  0  0  0
   18.3179   12.4126   11.2485 C   0  0  0  0  0  0  0  0  0  0  0  0
   17.5222   13.2102   11.7520 O   0  0  0  0  0  0  0  0  0  0  0  0
   17.8990   11.2082   10.7055 N   0  0  0  0  0  0  0  0  0  0  0  0
   16.6824   10.5557   10.9788 C   0  0  0  0  0  0  0  0  0  0  0  0
   16.1364    9.7587    9.9666 C   0  0  0  0  0  0  0  0  0  0  0  0
   15.0379    8.9656   10.2424 C   0  0  0  0  0  0  0  0  0  0  0  0
   13.8687    8.4209    8.8860 Br  0  0  0  0  0  0  0  0  0  0  0  0
   14.6200    8.7824   11.5387 C   0  0  0  0  0  0  0  0  0  0  0  0
   15.0189    9.7150   12.4729 C   0  0  0  0  0  0  0  0  0  0  0  0
   14.2687    9.8445   13.6049 O   0  0  0  0  0  0  0  0  0  0  0  0
   16.0448   10.6234   12.2318 C   0  0  0  0  0  0  0  0  0  0  0  0
   16.5494   11.3629   13.3221 N   0  0  0  0  0  0  0  0  0  0  0  0
  1  2  1  0
  3  2  1  0
  3  4  1  6
  3  5  1  0
  5  6  2  0
  5  7  1  0
  3  8  1  0
  8  9  2  0
  8 10  1  0
 10 11  1  0
 11 12  2  0
 12 13  1  0
 13 14  1  0
 13 15  2  0
 15 16  1  0
 16 17  1  0
 16 18  2  0
 18 19  1  0
 18 11  1  0
M  END
>  <ref_pdb>  (546) 
c0270a

>  <inchikey>  (546) 
YDEDXTAPAYAZGC-NSHDSACASA-N

>  <original ID>  (546) 
YDEDXTAPAYAZGC-NSHDSACASA-N

>  <generation_date>  (546) 
None

>  <alias>  (546) 
None

>  <tags>  (546) 
[]

>  <ref_mols>  (546) 
c0692a,c1116a

>  <ref_url>  (546) 
None

>  <submitter_name>  (546) 
None

>  <exports>  (546) 
nan

>  <original SMILES>  (546) 
CO[C@](C)(C(=O)O)C(=O)Nc1cc(Br)cc(O)c1N

>  <method>  (546) 
None

>  <submitter_email>  (546) 
None

>  <HIPPO ID>  (546) 
115103

$$$$
FJDBEGNCPSFTQU-NSHDSACASA-N
     RDKit          3D

 19 19  0  0  0  0  0  0  0  0999 V2000
   21.6488   11.3117   10.3958 C   0  0  0  0  0  0  0  0  0  0  0  0
   20.2346   11.4591   10.4295 O   0  0  0  0  0  0  0  0  0  0  0  0
   19.7233   12.5697   11.1654 C   0  0  2  0  0  0  0  0  0  0  0  0
   20.1333   13.8895   10.4874 C   0  0  0  0  0  0  0  0  0  0  0  0
   20.2200   12.8911   12.5835 C   0  0  0  0  0  0  0  0  0  0  0  0
   19.8044   13.7985   13.2881 O   0  0  0  0  0  0  0  0  0  0  0  0
   21.2833   12.1632   12.9617 O   0  0  0  0  0  0  0  0  0  0  0  0
   18.1706   12.3281   11.2415 C   0  0  0  0  0  0  0  0  0  0  0  0
   17.3991   13.1100   11.8050 O   0  0  0  0  0  0  0  0  0  0  0  0
   17.6931   11.1603   10.6515 N   0  0  0  0  0  0  0  0  0  0  0  0
   16.5179   10.4273   11.0008 C   0  0  0  0  0  0  0  0  0  0  0  0
   16.0253    9.4468   10.1077 C   0  0  0  0  0  0  0  0  0  0  0  0
   16.2466    9.5119    8.7425 N   0  0  0  0  0  0  0  0  0  0  0  0
   15.1135    8.4727   10.5276 C   0  0  0  0  0  0  0  0  0  0  0  0
   14.6799    8.4571   11.8362 C   0  0  0  0  0  0  0  0  0  0  0  0
   15.0520    9.5004   12.6761 C   0  0  0  0  0  0  0  0  0  0  0  0
   14.2977    9.6249   14.3877 Br  0  0  0  0  0  0  0  0  0  0  0  0
   15.9612   10.4762   12.2762 C   0  0  0  0  0  0  0  0  0  0  0  0
   16.3437   11.3887   13.2197 O   0  0  0  0  0  0  0  0  0  0  0  0
  1  2  1  0
  3  2  1  0
  3  4  1  6
  3  5  1  0
  5  6  2  0
  5  7  1  0
  3  8  1  0
  8  9  2  0
  8 10  1  0
 10 11  1  0
 11 12  2  0
 12 13  1  0
 12 14  1  0
 14 15  2  0
 15 16  1  0
 16 17  1  0
 16 18  2  0
 18 19  1  0
 18 11  1  0
M  END
>  <ref_pdb>  (547) 
c0270a

>  <inchikey>  (547) 
FJDBEGNCPSFTQU-NSHDSACASA-N

>  <original ID>  (547) 
FJDBEGNCPSFTQU-NSHDSACASA-N

>  <generation_date>  (547) 
None

>  <alias>  (547) 
None

>  <tags>  (547) 
[]

>  <ref_mols>  (547) 
c0692a,c1116a

>  <ref_url>  (547) 
None

>  <submitter_name>  (547) 
None

>  <exports>  (547) 
nan

>  <original SMILES>  (547) 
CO[C@](C)(C(=O)O)C(=O)Nc1c(N)ccc(Br)c1O

>  <method>  (547) 
None

>  <submitter_email>  (547) 
None

>  <HIPPO ID>  (547) 
115104

$$$$
FJDBEGNCPSFTQU-LLVKDONJSA-N
     RDKit          3D

 19 19  0  0  0  0  0  0  0  0999 V2000
   21.7036   11.0602   10.5561 C   0  0  0  0  0  0  0  0  0  0  0  0
   20.3000   11.2146   10.7132 O   0  0  0  0  0  0  0  0  0  0  0  0
   19.8269   12.5072   11.1111 C   0  0  1  0  0  0  0  0  0  0  0  0
   20.3284   12.8970   12.5174 C   0  0  0  0  0  0  0  0  0  0  0  0
   20.2971   13.7048   10.2630 C   0  0  0  0  0  0  0  0  0  0  0  0
   19.6595   14.6405    9.8206 O   0  0  0  0  0  0  0  0  0  0  0  0
   21.6262   13.7150   10.0321 O   0  0  0  0  0  0  0  0  0  0  0  0
   18.2674   12.3197   11.1868 C   0  0  0  0  0  0  0  0  0  0  0  0
   17.5341   13.1127   11.7884 O   0  0  0  0  0  0  0  0  0  0  0  0
   17.7351   11.1858   10.5724 N   0  0  0  0  0  0  0  0  0  0  0  0
   16.5464   10.4762   10.9234 C   0  0  0  0  0  0  0  0  0  0  0  0
   15.9972    9.5454   10.0101 C   0  0  0  0  0  0  0  0  0  0  0  0
   16.3802    9.4748    8.6725 N   0  0  0  0  0  0  0  0  0  0  0  0
   15.1236    8.5422   10.4354 C   0  0  0  0  0  0  0  0  0  0  0  0
   14.6925    8.5194   11.7455 C   0  0  0  0  0  0  0  0  0  0  0  0
   15.0689    9.5560   12.5924 C   0  0  0  0  0  0  0  0  0  0  0  0
   14.3243    9.6732   14.3101 Br  0  0  0  0  0  0  0  0  0  0  0  0
   15.9912   10.5231   12.1997 C   0  0  0  0  0  0  0  0  0  0  0  0
   16.3858   11.4218   13.1513 O   0  0  0  0  0  0  0  0  0  0  0  0
  1  2  1  0
  3  2  1  0
  3  4  1  1
  3  5  1  0
  5  6  2  0
  5  7  1  0
  3  8  1  0
  8  9  2  0
  8 10  1  0
 10 11  1  0
 11 12  2  0
 12 13  1  0
 12 14  1  0
 14 15  2  0
 15 16  1  0
 16 17  1  0
 16 18  2  0
 18 19  1  0
 18 11  1  0
M  END
>  <ref_pdb>  (548) 
c0270a

>  <inchikey>  (548) 
FJDBEGNCPSFTQU-LLVKDONJSA-N

>  <original ID>  (548) 
FJDBEGNCPSFTQU-LLVKDONJSA-N

>  <generation_date>  (548) 
None

>  <alias>  (548) 
None

>  <tags>  (548) 
[]

>  <ref_mols>  (548) 
c0692a,c1116a

>  <ref_url>  (548) 
None

>  <submitter_name>  (548) 
None

>  <exports>  (548) 
nan

>  <original SMILES>  (548) 
CO[C@@](C)(C(=O)O)C(=O)Nc1c(N)ccc(Br)c1O

>  <method>  (548) 
None

>  <submitter_email>  (548) 
None

>  <HIPPO ID>  (548) 
115105

$$$$
RBYLWHBLMYJQAR-NSHDSACASA-N
     RDKit          3D

 19 19  0  0  0  0  0  0  0  0999 V2000
   21.7079   11.3651   10.3846 C   0  0  0  0  0  0  0  0  0  0  0  0
   20.2951   11.5391   10.3810 O   0  0  0  0  0  0  0  0  0  0  0  0
   19.7847   12.6144   11.1819 C   0  0  2  0  0  0  0  0  0  0  0  0
   20.1473   13.9544   10.5246 C   0  0  0  0  0  0  0  0  0  0  0  0
   20.3940   12.8143   12.5673 C   0  0  0  0  0  0  0  0  0  0  0  0
   21.4115   12.2834   12.9804 O   0  0  0  0  0  0  0  0  0  0  0  0
   19.7799   13.7585   13.3066 O   0  0  0  0  0  0  0  0  0  0  0  0
   18.2431   12.3395   11.2962 C   0  0  0  0  0  0  0  0  0  0  0  0
   17.4618   13.0860   11.8876 O   0  0  0  0  0  0  0  0  0  0  0  0
   17.8204   11.1822   10.6559 N   0  0  0  0  0  0  0  0  0  0  0  0
   16.6150   10.4579   10.8001 C   0  0  0  0  0  0  0  0  0  0  0  0
   16.2840    9.5822    9.7551 C   0  0  0  0  0  0  0  0  0  0  0  0
   15.2870    8.6201    9.8770 C   0  0  0  0  0  0  0  0  0  0  0  0
   14.6855    8.4314   11.0994 C   0  0  0  0  0  0  0  0  0  0  0  0
   13.6944    6.8282   11.3311 Br  0  0  0  0  0  0  0  0  0  0  0  0
   14.9279    9.3690   12.1038 C   0  0  0  0  0  0  0  0  0  0  0  0
   14.3575    9.2641   13.3419 O   0  0  0  0  0  0  0  0  0  0  0  0
   15.8105   10.4542   11.9401 C   0  0  0  0  0  0  0  0  0  0  0  0
   16.0036   11.2956   13.0704 N   0  0  0  0  0  0  0  0  0  0  0  0
  1  2  1  0
  3  2  1  0
  3  4  1  6
  3  5  1  0
  5  6  2  0
  5  7  1  0
  3  8  1  0
  8  9  2  0
  8 10  1  0
 10 11  1  0
 11 12  2  0
 12 13  1  0
 13 14  2  0
 14 15  1  0
 14 16  1  0
 16 17  1  0
 16 18  2  0
 18 19  1  0
 18 11  1  0
M  END
>  <ref_pdb>  (549) 
c0270a

>  <inchikey>  (549) 
RBYLWHBLMYJQAR-NSHDSACASA-N

>  <original ID>  (549) 
RBYLWHBLMYJQAR-NSHDSACASA-N

>  <generation_date>  (549) 
None

>  <alias>  (549) 
None

>  <tags>  (549) 
[]

>  <ref_mols>  (549) 
c0692a,c1116a

>  <ref_url>  (549) 
None

>  <submitter_name>  (549) 
None

>  <exports>  (549) 
nan

>  <original SMILES>  (549) 
CO[C@](C)(C(=O)O)C(=O)Nc1ccc(Br)c(O)c1N

>  <method>  (549) 
None

>  <submitter_email>  (549) 
None

>  <HIPPO ID>  (549) 
115134

$$$$
RBYLWHBLMYJQAR-LLVKDONJSA-N
     RDKit          3D

 19 19  0  0  0  0  0  0  0  0999 V2000
   21.7230   11.5664   10.2794 C   0  0  0  0  0  0  0  0  0  0  0  0
   20.3032   11.5841   10.4070 O   0  0  0  0  0  0  0  0  0  0  0  0
   19.7656   12.6440   11.2134 C   0  0  1  0  0  0  0  0  0  0  0  0
   20.5445   12.7886   12.5256 C   0  0  0  0  0  0  0  0  0  0  0  0
   19.8618   14.0445   10.5849 C   0  0  0  0  0  0  0  0  0  0  0  0
   20.1958   14.3201    9.4409 O   0  0  0  0  0  0  0  0  0  0  0  0
   19.5591   15.0521   11.4319 O   0  0  0  0  0  0  0  0  0  0  0  0
   18.2612   12.2730   11.4561 C   0  0  0  0  0  0  0  0  0  0  0  0
   17.5383   12.9174   12.2175 O   0  0  0  0  0  0  0  0  0  0  0  0
   17.8038   11.1887   10.7185 N   0  0  0  0  0  0  0  0  0  0  0  0
   16.6178   10.4257   10.8569 C   0  0  0  0  0  0  0  0  0  0  0  0
   16.2761    9.6050    9.7698 C   0  0  0  0  0  0  0  0  0  0  0  0
   15.2747    8.6402    9.8422 C   0  0  0  0  0  0  0  0  0  0  0  0
   14.6729    8.3868   11.0520 C   0  0  0  0  0  0  0  0  0  0  0  0
   13.6591    6.7888   11.2015 Br  0  0  0  0  0  0  0  0  0  0  0  0
   14.9337    9.2583   12.1074 C   0  0  0  0  0  0  0  0  0  0  0  0
   14.3680    9.0841   13.3398 O   0  0  0  0  0  0  0  0  0  0  0  0
   15.8306   10.3410   12.0068 C   0  0  0  0  0  0  0  0  0  0  0  0
   16.0443   11.0888   13.1969 N   0  0  0  0  0  0  0  0  0  0  0  0
  1  2  1  0
  3  2  1  0
  3  4  1  1
  3  5  1  0
  5  6  2  0
  5  7  1  0
  3  8  1  0
  8  9  2  0
  8 10  1  0
 10 11  1  0
 11 12  2  0
 12 13  1  0
 13 14  2  0
 14 15  1  0
 14 16  1  0
 16 17  1  0
 16 18  2  0
 18 19  1  0
 18 11  1  0
M  END
>  <ref_pdb>  (550) 
c0270a

>  <inchikey>  (550) 
RBYLWHBLMYJQAR-LLVKDONJSA-N

>  <original ID>  (550) 
RBYLWHBLMYJQAR-LLVKDONJSA-N

>  <generation_date>  (550) 
None

>  <alias>  (550) 
None

>  <tags>  (550) 
[]

>  <ref_mols>  (550) 
c0692a,c1116a

>  <ref_url>  (550) 
None

>  <submitter_name>  (550) 
None

>  <exports>  (550) 
nan

>  <original SMILES>  (550) 
CO[C@@](C)(C(=O)O)C(=O)Nc1ccc(Br)c(O)c1N

>  <method>  (550) 
None

>  <submitter_email>  (550) 
None

>  <HIPPO ID>  (550) 
115135

$$$$
VBWCXSLNINFTLN-LBPRGKRZSA-N
     RDKit          3D

 19 19  0  0  0  0  0  0  0  0999 V2000
   21.7288   11.3876   10.4412 C   0  0  0  0  0  0  0  0  0  0  0  0
   20.3144   11.5097   10.4861 O   0  0  0  0  0  0  0  0  0  0  0  0
   19.7791   12.6145   11.2211 C   0  0  2  0  0  0  0  0  0  0  0  0
   20.1513   13.9315   10.5217 C   0  0  0  0  0  0  0  0  0  0  0  0
   20.2596   12.9480   12.6385 C   0  0  0  0  0  0  0  0  0  0  0  0
   19.7912   13.8250   13.3497 O   0  0  0  0  0  0  0  0  0  0  0  0
   21.3652   12.2771   13.0102 O   0  0  0  0  0  0  0  0  0  0  0  0
   18.2319   12.3400   11.2871 C   0  0  0  0  0  0  0  0  0  0  0  0
   17.4341   13.0937   11.8468 O   0  0  0  0  0  0  0  0  0  0  0  0
   17.8330   11.1730   10.6485 N   0  0  0  0  0  0  0  0  0  0  0  0
   16.6278   10.4487   10.7879 C   0  0  0  0  0  0  0  0  0  0  0  0
   16.2913    9.5837    9.7375 C   0  0  0  0  0  0  0  0  0  0  0  0
   15.2890    8.6291    9.8529 C   0  0  0  0  0  0  0  0  0  0  0  0
   14.6565    8.4467   11.0646 C   0  0  0  0  0  0  0  0  0  0  0  0
   13.8167    7.2190   11.2474 C   0  0  0  0  0  0  0  0  0  0  0  0
   14.9085    9.3924   12.0653 C   0  0  0  0  0  0  0  0  0  0  0  0
   14.2273    9.3553   13.2141 F   0  0  0  0  0  0  0  0  0  0  0  0
   15.8401   10.4357   11.9396 C   0  0  0  0  0  0  0  0  0  0  0  0
   16.1302   11.2023   13.0954 N   0  0  0  0  0  0  0  0  0  0  0  0
  1  2  1  0
  3  2  1  0
  3  4  1  6
  3  5  1  0
  5  6  2  0
  5  7  1  0
  3  8  1  0
  8  9  2  0
  8 10  1  0
 10 11  1  0
 11 12  2  0
 12 13  1  0
 13 14  2  0
 14 15  1  0
 14 16  1  0
 16 17  1  0
 16 18  2  0
 18 19  1  0
 18 11  1  0
M  END
>  <ref_pdb>  (551) 
c0270a

>  <inchikey>  (551) 
VBWCXSLNINFTLN-LBPRGKRZSA-N

>  <original ID>  (551) 
VBWCXSLNINFTLN-LBPRGKRZSA-N

>  <generation_date>  (551) 
None

>  <alias>  (551) 
None

>  <tags>  (551) 
[]

>  <ref_mols>  (551) 
c0692a,c1116a

>  <ref_url>  (551) 
None

>  <submitter_name>  (551) 
None

>  <exports>  (551) 
nan

>  <original SMILES>  (551) 
CO[C@](C)(C(=O)O)C(=O)Nc1ccc(C)c(F)c1N

>  <method>  (551) 
None

>  <submitter_email>  (551) 
None

>  <HIPPO ID>  (551) 
115197

$$$$
VBWCXSLNINFTLN-GFCCVEGCSA-N
     RDKit          3D

 19 19  0  0  0  0  0  0  0  0999 V2000
   21.7341   11.5821   10.2856 C   0  0  0  0  0  0  0  0  0  0  0  0
   20.3140   11.5932   10.4068 O   0  0  0  0  0  0  0  0  0  0  0  0
   19.7661   12.6487   11.2139 C   0  0  1  0  0  0  0  0  0  0  0  0
   20.5361   12.7933   12.5304 C   0  0  0  0  0  0  0  0  0  0  0  0
   19.8623   14.0491   10.5851 C   0  0  0  0  0  0  0  0  0  0  0  0
   20.1943   14.3243    9.4401 O   0  0  0  0  0  0  0  0  0  0  0  0
   19.5632   15.0578   11.4322 O   0  0  0  0  0  0  0  0  0  0  0  0
   18.2605   12.2732   11.4451 C   0  0  0  0  0  0  0  0  0  0  0  0
   17.5211   12.9296   12.1805 O   0  0  0  0  0  0  0  0  0  0  0  0
   17.8261   11.1718   10.7173 N   0  0  0  0  0  0  0  0  0  0  0  0
   16.6371   10.4141   10.8504 C   0  0  0  0  0  0  0  0  0  0  0  0
   16.2896    9.6021    9.7603 C   0  0  0  0  0  0  0  0  0  0  0  0
   15.2815    8.6467    9.8288 C   0  0  0  0  0  0  0  0  0  0  0  0
   14.6463    8.4071   11.0285 C   0  0  0  0  0  0  0  0  0  0  0  0
   13.7894    7.1840   11.1539 C   0  0  0  0  0  0  0  0  0  0  0  0
   14.9162    9.2907   12.0774 C   0  0  0  0  0  0  0  0  0  0  0  0
   14.2367    9.1995   13.2238 F   0  0  0  0  0  0  0  0  0  0  0  0
   15.8632   10.3267   12.0088 C   0  0  0  0  0  0  0  0  0  0  0  0
   16.1761   10.9981   13.2160 N   0  0  0  0  0  0  0  0  0  0  0  0
  1  2  1  0
  3  2  1  0
  3  4  1  1
  3  5  1  0
  5  6  2  0
  5  7  1  0
  3  8  1  0
  8  9  2  0
  8 10  1  0
 10 11  1  0
 11 12  2  0
 12 13  1  0
 13 14  2  0
 14 15  1  0
 14 16  1  0
 16 17  1  0
 16 18  2  0
 18 19  1  0
 18 11  1  0
M  END
>  <ref_pdb>  (552) 
c0270a

>  <inchikey>  (552) 
VBWCXSLNINFTLN-GFCCVEGCSA-N

>  <original ID>  (552) 
VBWCXSLNINFTLN-GFCCVEGCSA-N

>  <generation_date>  (552) 
None

>  <alias>  (552) 
None

>  <tags>  (552) 
[]

>  <ref_mols>  (552) 
c0692a,c1116a

>  <ref_url>  (552) 
None

>  <submitter_name>  (552) 
None

>  <exports>  (552) 
nan

>  <original SMILES>  (552) 
CO[C@@](C)(C(=O)O)C(=O)Nc1ccc(C)c(F)c1N

>  <method>  (552) 
None

>  <submitter_email>  (552) 
None

>  <HIPPO ID>  (552) 
115198

$$$$
XDNWBKHPXZLGRD-LBPRGKRZSA-N
     RDKit          3D

 19 19  0  0  0  0  0  0  0  0999 V2000
   21.6232   11.3058   10.4265 C   0  0  0  0  0  0  0  0  0  0  0  0
   20.2081   11.4277   10.4859 O   0  0  0  0  0  0  0  0  0  0  0  0
   19.6835   12.5379   11.2154 C   0  0  2  0  0  0  0  0  0  0  0  0
   20.0738   13.8534   10.5217 C   0  0  0  0  0  0  0  0  0  0  0  0
   20.1962   12.8956   12.6208 C   0  0  0  0  0  0  0  0  0  0  0  0
   19.7454   13.7832   13.3300 O   0  0  0  0  0  0  0  0  0  0  0  0
   21.3178   12.2409   12.9749 O   0  0  0  0  0  0  0  0  0  0  0  0
   18.1272   12.2598   11.3127 C   0  0  0  0  0  0  0  0  0  0  0  0
   17.3701   12.9611   11.9844 O   0  0  0  0  0  0  0  0  0  0  0  0
   17.6590   11.1543   10.5957 N   0  0  0  0  0  0  0  0  0  0  0  0
   16.4881   10.3955   10.8604 C   0  0  0  0  0  0  0  0  0  0  0  0
   15.8891   10.4136   12.1077 C   0  0  0  0  0  0  0  0  0  0  0  0
   14.9811    9.4088   12.4873 C   0  0  0  0  0  0  0  0  0  0  0  0
   14.4043    9.5839   13.8494 C   0  0  0  0  0  0  0  0  0  0  0  0
   14.6816    8.3704   11.5939 C   0  0  0  0  0  0  0  0  0  0  0  0
   13.6980    6.7958   12.0110 Br  0  0  0  0  0  0  0  0  0  0  0  0
   15.1354    8.4548   10.2931 C   0  0  0  0  0  0  0  0  0  0  0  0
   15.9904    9.4850    9.9148 C   0  0  0  0  0  0  0  0  0  0  0  0
   16.4150    9.4529    8.5922 N   0  0  0  0  0  0  0  0  0  0  0  0
  1  2  1  0
  3  2  1  0
  3  4  1  6
  3  5  1  0
  5  6  2  0
  5  7  1  0
  3  8  1  0
  8  9  2  0
  8 10  1  0
 10 11  1  0
 11 12  2  0
 12 13  1  0
 13 14  1  0
 13 15  2  0
 15 16  1  0
 15 17  1  0
 17 18  2  0
 18 19  1  0
 18 11  1  0
M  END
>  <ref_pdb>  (553) 
c0270a

>  <inchikey>  (553) 
XDNWBKHPXZLGRD-LBPRGKRZSA-N

>  <original ID>  (553) 
XDNWBKHPXZLGRD-LBPRGKRZSA-N

>  <generation_date>  (553) 
None

>  <alias>  (553) 
None

>  <tags>  (553) 
[]

>  <ref_mols>  (553) 
c0692a,c1116a

>  <ref_url>  (553) 
None

>  <submitter_name>  (553) 
None

>  <exports>  (553) 
nan

>  <original SMILES>  (553) 
CO[C@](C)(C(=O)O)C(=O)Nc1cc(C)c(Br)cc1N

>  <method>  (553) 
None

>  <submitter_email>  (553) 
None

>  <HIPPO ID>  (553) 
115199

$$$$
XDNWBKHPXZLGRD-GFCCVEGCSA-N
     RDKit          3D

 19 19  0  0  0  0  0  0  0  0999 V2000
   21.6140   11.4572   10.2566 C   0  0  0  0  0  0  0  0  0  0  0  0
   20.1949   11.5076   10.3882 O   0  0  0  0  0  0  0  0  0  0  0  0
   19.6847   12.5591   11.2164 C   0  0  1  0  0  0  0  0  0  0  0  0
   20.5271   12.7132   12.4955 C   0  0  0  0  0  0  0  0  0  0  0  0
   19.7834   13.9711   10.6132 C   0  0  0  0  0  0  0  0  0  0  0  0
   20.1645   14.2736    9.4905 O   0  0  0  0  0  0  0  0  0  0  0  0
   19.4594   14.9629   11.4723 O   0  0  0  0  0  0  0  0  0  0  0  0
   18.1829   12.1905   11.5243 C   0  0  0  0  0  0  0  0  0  0  0  0
   17.5457   12.7741   12.4029 O   0  0  0  0  0  0  0  0  0  0  0  0
   17.6281   11.1723   10.7421 N   0  0  0  0  0  0  0  0  0  0  0  0
   16.4612   10.4045   11.0245 C   0  0  0  0  0  0  0  0  0  0  0  0
   15.8399   10.4337   12.2602 C   0  0  0  0  0  0  0  0  0  0  0  0
   14.9293    9.4308   12.6403 C   0  0  0  0  0  0  0  0  0  0  0  0
   14.3433    9.6130   13.9963 C   0  0  0  0  0  0  0  0  0  0  0  0
   14.6527    8.3767   11.7628 C   0  0  0  0  0  0  0  0  0  0  0  0
   13.6775    6.7981   12.1865 Br  0  0  0  0  0  0  0  0  0  0  0  0
   15.1230    8.4485   10.4694 C   0  0  0  0  0  0  0  0  0  0  0  0
   15.9807    9.4790   10.0848 C   0  0  0  0  0  0  0  0  0  0  0  0
   16.4950    9.3825    8.8116 N   0  0  0  0  0  0  0  0  0  0  0  0
  1  2  1  0
  3  2  1  0
  3  4  1  1
  3  5  1  0
  5  6  2  0
  5  7  1  0
  3  8  1  0
  8  9  2  0
  8 10  1  0
 10 11  1  0
 11 12  2  0
 12 13  1  0
 13 14  1  0
 13 15  2  0
 15 16  1  0
 15 17  1  0
 17 18  2  0
 18 19  1  0
 18 11  1  0
M  END
>  <ref_pdb>  (554) 
c0270a

>  <inchikey>  (554) 
XDNWBKHPXZLGRD-GFCCVEGCSA-N

>  <original ID>  (554) 
XDNWBKHPXZLGRD-GFCCVEGCSA-N

>  <generation_date>  (554) 
None

>  <alias>  (554) 
None

>  <tags>  (554) 
[]

>  <ref_mols>  (554) 
c0692a,c1116a

>  <ref_url>  (554) 
None

>  <submitter_name>  (554) 
None

>  <exports>  (554) 
nan

>  <original SMILES>  (554) 
CO[C@@](C)(C(=O)O)C(=O)Nc1cc(C)c(Br)cc1N

>  <method>  (554) 
None

>  <submitter_email>  (554) 
None

>  <HIPPO ID>  (554) 
115200

$$$$
JEJZCXXFXSHXLL-GFCCVEGCSA-N
     RDKit          3D

 19 19  0  0  0  0  0  0  0  0999 V2000
   21.6380   11.5040   10.2720 C   0  0  0  0  0  0  0  0  0  0  0  0
   20.2139   11.5342   10.3739 O   0  0  0  0  0  0  0  0  0  0  0  0
   19.6776   12.6139   11.1476 C   0  0  1  0  0  0  0  0  0  0  0  0
   20.4191   12.7505   12.4850 C   0  0  0  0  0  0  0  0  0  0  0  0
   19.8452   14.0221   10.5370 C   0  0  0  0  0  0  0  0  0  0  0  0
   20.2087   14.3030    9.4038 O   0  0  0  0  0  0  0  0  0  0  0  0
   19.5658   15.0355   11.3870 O   0  0  0  0  0  0  0  0  0  0  0  0
   18.1434   12.3030   11.3418 C   0  0  0  0  0  0  0  0  0  0  0  0
   17.4093   13.0890   11.9402 O   0  0  0  0  0  0  0  0  0  0  0  0
   17.6714   11.1299   10.7524 N   0  0  0  0  0  0  0  0  0  0  0  0
   16.4773   10.3910   11.0240 C   0  0  0  0  0  0  0  0  0  0  0  0
   16.0166    9.4803   10.0322 C   0  0  0  0  0  0  0  0  0  0  0  0
   16.4724    9.4790    8.7173 N   0  0  0  0  0  0  0  0  0  0  0  0
   15.1187    8.4530   10.3280 C   0  0  0  0  0  0  0  0  0  0  0  0
   14.5658    8.3836   11.5788 C   0  0  0  0  0  0  0  0  0  0  0  0
   14.8367    9.4116   12.4680 C   0  0  0  0  0  0  0  0  0  0  0  0
   14.1065    9.5003   13.5815 F   0  0  0  0  0  0  0  0  0  0  0  0
   15.8034   10.3950   12.2491 C   0  0  0  0  0  0  0  0  0  0  0  0
   16.0135   11.3335   13.3915 C   0  0  0  0  0  0  0  0  0  0  0  0
  1  2  1  0
  3  2  1  0
  3  4  1  1
  3  5  1  0
  5  6  2  0
  5  7  1  0
  3  8  1  0
  8  9  2  0
  8 10  1  0
 10 11  1  0
 11 12  2  0
 12 13  1  0
 12 14  1  0
 14 15  2  0
 15 16  1  0
 16 17  1  0
 16 18  2  0
 18 19  1  0
 18 11  1  0
M  END
>  <ref_pdb>  (555) 
c0270a

>  <inchikey>  (555) 
JEJZCXXFXSHXLL-GFCCVEGCSA-N

>  <original ID>  (555) 
JEJZCXXFXSHXLL-GFCCVEGCSA-N

>  <generation_date>  (555) 
None

>  <alias>  (555) 
None

>  <tags>  (555) 
[]

>  <ref_mols>  (555) 
c0692a,c1116a

>  <ref_url>  (555) 
None

>  <submitter_name>  (555) 
None

>  <exports>  (555) 
['/opt/xchem-fragalysis-2/maxwin/CHIKV_HIPPO/hippo_prod/CHIKV_prod11_recipes/Recipe_1GERJCJ_poses.sdf']

>  <original SMILES>  (555) 
CO[C@@](C)(C(=O)O)C(=O)Nc1c(N)ccc(F)c1C

>  <method>  (555) 
None

>  <submitter_email>  (555) 
None

>  <HIPPO ID>  (555) 
115201

$$$$
LUZWLQZYCVGFKG-LBPRGKRZSA-N
     RDKit          3D

 19 19  0  0  0  0  0  0  0  0999 V2000
   21.6797   11.3777   10.5156 C   0  0  0  0  0  0  0  0  0  0  0  0
   20.3411   11.3336   11.0032 O   0  0  0  0  0  0  0  0  0  0  0  0
   19.6851   12.5679   11.3372 C   0  0  2  0  0  0  0  0  0  0  0  0
   20.1333   13.7641   10.4922 C   0  0  0  0  0  0  0  0  0  0  0  0
   20.0867   13.1271   12.7131 C   0  0  0  0  0  0  0  0  0  0  0  0
   19.5907   14.1153   13.2358 O   0  0  0  0  0  0  0  0  0  0  0  0
   21.1803   12.5359   13.2285 O   0  0  0  0  0  0  0  0  0  0  0  0
   18.1293   12.2935   11.3351 C   0  0  0  0  0  0  0  0  0  0  0  0
   17.3295   13.0445   11.8960 O   0  0  0  0  0  0  0  0  0  0  0  0
   17.6894   11.1493   10.6697 N   0  0  0  0  0  0  0  0  0  0  0  0
   16.4947   10.4305   10.9601 C   0  0  0  0  0  0  0  0  0  0  0  0
   15.8796   10.5228   12.1965 C   0  0  0  0  0  0  0  0  0  0  0  0
   14.9589    9.5469   12.6135 C   0  0  0  0  0  0  0  0  0  0  0  0
   14.3617    9.7835   13.9560 C   0  0  0  0  0  0  0  0  0  0  0  0
   14.6740    8.4603   11.7776 C   0  0  0  0  0  0  0  0  0  0  0  0
   13.7742    7.0567   12.2360 Cl  0  0  0  0  0  0  0  0  0  0  0  0
   15.1367    8.4750   10.4808 C   0  0  0  0  0  0  0  0  0  0  0  0
   15.9960    9.4844   10.0551 C   0  0  0  0  0  0  0  0  0  0  0  0
   16.4827    9.3645    8.7739 N   0  0  0  0  0  0  0  0  0  0  0  0
  1  2  1  0
  3  2  1  0
  3  4  1  6
  3  5  1  0
  5  6  2  0
  5  7  1  0
  3  8  1  0
  8  9  2  0
  8 10  1  0
 10 11  1  0
 11 12  2  0
 12 13  1  0
 13 14  1  0
 13 15  2  0
 15 16  1  0
 15 17  1  0
 17 18  2  0
 18 19  1  0
 18 11  1  0
M  END
>  <ref_pdb>  (556) 
c0270a

>  <inchikey>  (556) 
LUZWLQZYCVGFKG-LBPRGKRZSA-N

>  <original ID>  (556) 
LUZWLQZYCVGFKG-LBPRGKRZSA-N

>  <generation_date>  (556) 
None

>  <alias>  (556) 
None

>  <tags>  (556) 
[]

>  <ref_mols>  (556) 
c0692a,c1116a

>  <ref_url>  (556) 
None

>  <submitter_name>  (556) 
None

>  <exports>  (556) 
nan

>  <original SMILES>  (556) 
CO[C@](C)(C(=O)O)C(=O)Nc1cc(C)c(Cl)cc1N

>  <method>  (556) 
None

>  <submitter_email>  (556) 
None

>  <HIPPO ID>  (556) 
115218

$$$$
LUZWLQZYCVGFKG-GFCCVEGCSA-N
     RDKit          3D

 19 19  0  0  0  0  0  0  0  0999 V2000
   21.6454   11.1065   10.6112 C   0  0  0  0  0  0  0  0  0  0  0  0
   20.2470   11.2380   10.8239 O   0  0  0  0  0  0  0  0  0  0  0  0
   19.7545   12.5401   11.1682 C   0  0  1  0  0  0  0  0  0  0  0  0
   20.1952   12.9633   12.5847 C   0  0  0  0  0  0  0  0  0  0  0  0
   20.2781   13.7189   10.3198 C   0  0  0  0  0  0  0  0  0  0  0  0
   19.6796   14.5493    9.6647 O   0  0  0  0  0  0  0  0  0  0  0  0
   21.6255   13.8360   10.3466 O   0  0  0  0  0  0  0  0  0  0  0  0
   18.1885   12.3461   11.2230 C   0  0  0  0  0  0  0  0  0  0  0  0
   17.4537   13.1309   11.8298 O   0  0  0  0  0  0  0  0  0  0  0  0
   17.6815   11.2054   10.5960 N   0  0  0  0  0  0  0  0  0  0  0  0
   16.4929   10.4997   10.9244 C   0  0  0  0  0  0  0  0  0  0  0  0
   15.8834   10.6312   12.1581 C   0  0  0  0  0  0  0  0  0  0  0  0
   14.9734    9.6589   12.6099 C   0  0  0  0  0  0  0  0  0  0  0  0
   14.3750    9.9306   13.9449 C   0  0  0  0  0  0  0  0  0  0  0  0
   14.6998    8.5389   11.8132 C   0  0  0  0  0  0  0  0  0  0  0  0
   13.8337    7.1322   12.3254 Cl  0  0  0  0  0  0  0  0  0  0  0  0
   15.1504    8.5167   10.5132 C   0  0  0  0  0  0  0  0  0  0  0  0
   15.9949    9.5209   10.0515 C   0  0  0  0  0  0  0  0  0  0  0  0
   16.4749    9.3638    8.7711 N   0  0  0  0  0  0  0  0  0  0  0  0
  1  2  1  0
  3  2  1  0
  3  4  1  1
  3  5  1  0
  5  6  2  0
  5  7  1  0
  3  8  1  0
  8  9  2  0
  8 10  1  0
 10 11  1  0
 11 12  2  0
 12 13  1  0
 13 14  1  0
 13 15  2  0
 15 16  1  0
 15 17  1  0
 17 18  2  0
 18 19  1  0
 18 11  1  0
M  END
>  <ref_pdb>  (557) 
c0270a

>  <inchikey>  (557) 
LUZWLQZYCVGFKG-GFCCVEGCSA-N

>  <original ID>  (557) 
LUZWLQZYCVGFKG-GFCCVEGCSA-N

>  <generation_date>  (557) 
None

>  <alias>  (557) 
None

>  <tags>  (557) 
[]

>  <ref_mols>  (557) 
c0692a,c1116a

>  <ref_url>  (557) 
None

>  <submitter_name>  (557) 
None

>  <exports>  (557) 
nan

>  <original SMILES>  (557) 
CO[C@@](C)(C(=O)O)C(=O)Nc1cc(C)c(Cl)cc1N

>  <method>  (557) 
None

>  <submitter_email>  (557) 
None

>  <HIPPO ID>  (557) 
115219

$$$$
LLRQGQSIFFIAKT-GFCCVEGCSA-N
     RDKit          3D

 19 19  0  0  0  0  0  0  0  0999 V2000
   21.5423   11.7188   10.4635 C   0  0  0  0  0  0  0  0  0  0  0  0
   20.1435   11.9517   10.6146 O   0  0  0  0  0  0  0  0  0  0  0  0
   19.7659   13.0875   11.4281 C   0  0  1  0  0  0  0  0  0  0  0  0
   20.5973   13.1697   12.7050 C   0  0  0  0  0  0  0  0  0  0  0  0
   19.9358   14.4474   10.7508 C   0  0  0  0  0  0  0  0  0  0  0  0
   19.8855   15.5380   11.2969 O   0  0  0  0  0  0  0  0  0  0  0  0
   20.2234   14.4226    9.4311 O   0  0  0  0  0  0  0  0  0  0  0  0
   18.2727   12.8543   11.8015 C   0  0  0  0  0  0  0  0  0  0  0  0
   17.4533   13.7319   12.0415 O   0  0  0  0  0  0  0  0  0  0  0  0
   17.9658   11.5112   11.8171 N   0  0  0  0  0  0  0  0  0  0  0  0
   16.7396   11.0163   11.3758 C   0  0  0  0  0  0  0  0  0  0  0  0
   15.5272   11.4934   11.7284 C   0  0  0  0  0  0  0  0  0  0  0  0
   14.4672   11.1083   10.9222 C   0  0  0  0  0  0  0  0  0  0  0  0
   13.2633   12.3123   10.9749 Cl  0  0  0  0  0  0  0  0  0  0  0  0
   14.5348   10.0377    9.9864 C   0  0  0  0  0  0  0  0  0  0  0  0
   13.4419    9.3992    9.1713 C   0  0  0  0  0  0  0  0  0  0  0  0
   15.7816    9.5040    9.7425 C   0  0  0  0  0  0  0  0  0  0  0  0
   16.8610   10.1175   10.3274 C   0  0  0  0  0  0  0  0  0  0  0  0
   18.1493    9.9648    9.8436 N   0  0  0  0  0  0  0  0  0  0  0  0
  1  2  1  0
  3  2  1  0
  3  4  1  1
  3  5  1  0
  5  6  2  0
  5  7  1  0
  3  8  1  0
  8  9  2  0
  8 10  1  0
 10 11  1  0
 11 12  2  0
 12 13  1  0
 13 14  1  0
 13 15  2  0
 15 16  1  0
 15 17  1  0
 17 18  2  0
 18 19  1  0
 18 11  1  0
M  END
>  <ref_pdb>  (558) 
c0270a

>  <inchikey>  (558) 
LLRQGQSIFFIAKT-GFCCVEGCSA-N

>  <original ID>  (558) 
LLRQGQSIFFIAKT-GFCCVEGCSA-N

>  <generation_date>  (558) 
None

>  <alias>  (558) 
None

>  <tags>  (558) 
[]

>  <ref_mols>  (558) 
c0692a,c1116a

>  <ref_url>  (558) 
None

>  <submitter_name>  (558) 
None

>  <exports>  (558) 
nan

>  <original SMILES>  (558) 
CO[C@@](C)(C(=O)O)C(=O)Nc1cc(Cl)c(C)cc1N

>  <method>  (558) 
None

>  <submitter_email>  (558) 
None

>  <HIPPO ID>  (558) 
115220

$$$$
BHJNNOLNUWTRDK-LBPRGKRZSA-N
     RDKit          3D

 19 19  0  0  0  0  0  0  0  0999 V2000
   21.6767   11.3207   10.3292 C   0  0  0  0  0  0  0  0  0  0  0  0
   20.2616   11.4828   10.3362 O   0  0  0  0  0  0  0  0  0  0  0  0
   19.7529   12.5460   11.1508 C   0  0  2  0  0  0  0  0  0  0  0  0
   20.1158   13.9029   10.5258 C   0  0  0  0  0  0  0  0  0  0  0  0
   20.3859   12.7212   12.5322 C   0  0  0  0  0  0  0  0  0  0  0  0
   21.3892   12.1527   12.9314 O   0  0  0  0  0  0  0  0  0  0  0  0
   19.8135   13.6817   13.2837 O   0  0  0  0  0  0  0  0  0  0  0  0
   18.2094   12.2711   11.2826 C   0  0  0  0  0  0  0  0  0  0  0  0
   17.4621   12.9896   11.9484 O   0  0  0  0  0  0  0  0  0  0  0  0
   17.7355   11.1511   10.5920 N   0  0  0  0  0  0  0  0  0  0  0  0
   16.5491   10.4282   10.8668 C   0  0  0  0  0  0  0  0  0  0  0  0
   15.9565   10.5052   12.1152 C   0  0  0  0  0  0  0  0  0  0  0  0
   14.9833    9.5799   12.4926 C   0  0  0  0  0  0  0  0  0  0  0  0
   14.3563    9.7893   13.8225 C   0  0  0  0  0  0  0  0  0  0  0  0
   14.6161    8.5623   11.6085 C   0  0  0  0  0  0  0  0  0  0  0  0
   13.7292    7.6154   11.9474 F   0  0  0  0  0  0  0  0  0  0  0  0
   15.0960    8.5507   10.3220 C   0  0  0  0  0  0  0  0  0  0  0  0
   16.0165    9.5162    9.9346 C   0  0  0  0  0  0  0  0  0  0  0  0
   16.4245    9.4562    8.6077 N   0  0  0  0  0  0  0  0  0  0  0  0
  1  2  1  0
  3  2  1  0
  3  4  1  6
  3  5  1  0
  5  6  2  0
  5  7  1  0
  3  8  1  0
  8  9  2  0
  8 10  1  0
 10 11  1  0
 11 12  2  0
 12 13  1  0
 13 14  1  0
 13 15  2  0
 15 16  1  0
 15 17  1  0
 17 18  2  0
 18 19  1  0
 18 11  1  0
M  END
>  <ref_pdb>  (559) 
c0270a

>  <inchikey>  (559) 
BHJNNOLNUWTRDK-LBPRGKRZSA-N

>  <original ID>  (559) 
BHJNNOLNUWTRDK-LBPRGKRZSA-N

>  <generation_date>  (559) 
None

>  <alias>  (559) 
None

>  <tags>  (559) 
[]

>  <ref_mols>  (559) 
c0692a,c1116a

>  <ref_url>  (559) 
None

>  <submitter_name>  (559) 
None

>  <exports>  (559) 
nan

>  <original SMILES>  (559) 
CO[C@](C)(C(=O)O)C(=O)Nc1cc(C)c(F)cc1N

>  <method>  (559) 
None

>  <submitter_email>  (559) 
None

>  <HIPPO ID>  (559) 
115234

$$$$
BHJNNOLNUWTRDK-GFCCVEGCSA-N
     RDKit          3D

 19 19  0  0  0  0  0  0  0  0999 V2000
   21.6638   11.4911   10.2312 C   0  0  0  0  0  0  0  0  0  0  0  0
   20.2438   11.5205   10.3645 O   0  0  0  0  0  0  0  0  0  0  0  0
   19.7236   12.5652   11.1956 C   0  0  1  0  0  0  0  0  0  0  0  0
   20.5502   12.6922   12.4864 C   0  0  0  0  0  0  0  0  0  0  0  0
   19.8168   13.9892   10.6187 C   0  0  0  0  0  0  0  0  0  0  0  0
   20.1957   14.3111    9.5011 O   0  0  0  0  0  0  0  0  0  0  0  0
   19.4811   14.9629   11.4942 O   0  0  0  0  0  0  0  0  0  0  0  0
   18.2217   12.1943   11.4793 C   0  0  0  0  0  0  0  0  0  0  0  0
   17.5690   12.7857   12.3411 O   0  0  0  0  0  0  0  0  0  0  0  0
   17.6899   11.1614   10.6978 N   0  0  0  0  0  0  0  0  0  0  0  0
   16.5275   10.3881   10.9773 C   0  0  0  0  0  0  0  0  0  0  0  0
   15.9221   10.4412   12.2220 C   0  0  0  0  0  0  0  0  0  0  0  0
   14.9591    9.5012   12.5911 C   0  0  0  0  0  0  0  0  0  0  0  0
   14.3217    9.7031   13.9166 C   0  0  0  0  0  0  0  0  0  0  0  0
   14.6045    8.4873   11.7023 C   0  0  0  0  0  0  0  0  0  0  0  0
   13.6975    7.5513   12.0179 F   0  0  0  0  0  0  0  0  0  0  0  0
   15.1030    8.4817   10.4239 C   0  0  0  0  0  0  0  0  0  0  0  0
   16.0524    9.4318   10.0536 C   0  0  0  0  0  0  0  0  0  0  0  0
   16.3355    9.4861    8.7050 N   0  0  0  0  0  0  0  0  0  0  0  0
  1  2  1  0
  3  2  1  0
  3  4  1  1
  3  5  1  0
  5  6  2  0
  5  7  1  0
  3  8  1  0
  8  9  2  0
  8 10  1  0
 10 11  1  0
 11 12  2  0
 12 13  1  0
 13 14  1  0
 13 15  2  0
 15 16  1  0
 15 17  1  0
 17 18  2  0
 18 19  1  0
 18 11  1  0
M  END
>  <ref_pdb>  (560) 
c0270a

>  <inchikey>  (560) 
BHJNNOLNUWTRDK-GFCCVEGCSA-N

>  <original ID>  (560) 
BHJNNOLNUWTRDK-GFCCVEGCSA-N

>  <generation_date>  (560) 
None

>  <alias>  (560) 
None

>  <tags>  (560) 
[]

>  <ref_mols>  (560) 
c0692a,c1116a

>  <ref_url>  (560) 
None

>  <submitter_name>  (560) 
None

>  <exports>  (560) 
nan

>  <original SMILES>  (560) 
CO[C@@](C)(C(=O)O)C(=O)Nc1cc(C)c(F)cc1N

>  <method>  (560) 
None

>  <submitter_email>  (560) 
None

>  <HIPPO ID>  (560) 
115235

$$$$
NWGFDPQAKFRINQ-LBPRGKRZSA-N
     RDKit          3D

 19 19  0  0  0  0  0  0  0  0999 V2000
   21.3545   11.4511   10.4682 C   0  0  0  0  0  0  0  0  0  0  0  0
   19.9867   11.8449   10.5810 O   0  0  0  0  0  0  0  0  0  0  0  0
   19.7027   12.9597   11.4571 C   0  0  2  0  0  0  0  0  0  0  0  0
   20.1041   14.2592   10.7531 C   0  0  0  0  0  0  0  0  0  0  0  0
   20.4764   13.0362   12.7635 C   0  0  0  0  0  0  0  0  0  0  0  0
   21.4478   12.3611   13.0591 O   0  0  0  0  0  0  0  0  0  0  0  0
   20.0583   14.0206   13.5799 O   0  0  0  0  0  0  0  0  0  0  0  0
   18.1683   12.8525   11.7632 C   0  0  0  0  0  0  0  0  0  0  0  0
   17.4035   13.7930   11.9368 O   0  0  0  0  0  0  0  0  0  0  0  0
   17.7505   11.5379   11.8150 N   0  0  0  0  0  0  0  0  0  0  0  0
   16.5415   11.1150   11.2452 C   0  0  0  0  0  0  0  0  0  0  0  0
   15.3049   11.6290   11.4739 C   0  0  0  0  0  0  0  0  0  0  0  0
   14.2749   11.1126   10.7043 C   0  0  0  0  0  0  0  0  0  0  0  0
   13.1294   11.7892   10.7928 F   0  0  0  0  0  0  0  0  0  0  0  0
   14.4135    9.9974    9.8370 C   0  0  0  0  0  0  0  0  0  0  0  0
   13.3254    9.2788    9.0928 C   0  0  0  0  0  0  0  0  0  0  0  0
   15.6789    9.4997    9.6473 C   0  0  0  0  0  0  0  0  0  0  0  0
   16.7226   10.1611   10.2478 C   0  0  0  0  0  0  0  0  0  0  0  0
   18.0375    9.9094    9.8909 N   0  0  0  0  0  0  0  0  0  0  0  0
  1  2  1  0
  3  2  1  0
  3  4  1  6
  3  5  1  0
  5  6  2  0
  5  7  1  0
  3  8  1  0
  8  9  2  0
  8 10  1  0
 10 11  1  0
 11 12  2  0
 12 13  1  0
 13 14  1  0
 13 15  2  0
 15 16  1  0
 15 17  1  0
 17 18  2  0
 18 19  1  0
 18 11  1  0
M  END
>  <ref_pdb>  (561) 
c0270a

>  <inchikey>  (561) 
NWGFDPQAKFRINQ-LBPRGKRZSA-N

>  <original ID>  (561) 
NWGFDPQAKFRINQ-LBPRGKRZSA-N

>  <generation_date>  (561) 
None

>  <alias>  (561) 
None

>  <tags>  (561) 
[]

>  <ref_mols>  (561) 
c0692a,c1116a

>  <ref_url>  (561) 
None

>  <submitter_name>  (561) 
None

>  <exports>  (561) 
nan

>  <original SMILES>  (561) 
CO[C@](C)(C(=O)O)C(=O)Nc1cc(F)c(C)cc1N

>  <method>  (561) 
None

>  <submitter_email>  (561) 
None

>  <HIPPO ID>  (561) 
115236

$$$$
NWGFDPQAKFRINQ-GFCCVEGCSA-N
     RDKit          3D

 19 19  0  0  0  0  0  0  0  0999 V2000
   21.6026   11.4501   10.2641 C   0  0  0  0  0  0  0  0  0  0  0  0
   20.1835   11.4953   10.4078 O   0  0  0  0  0  0  0  0  0  0  0  0
   19.6775   12.5560   11.2269 C   0  0  1  0  0  0  0  0  0  0  0  0
   20.5266   12.7284   12.4995 C   0  0  0  0  0  0  0  0  0  0  0  0
   19.7741   13.9586   10.6060 C   0  0  0  0  0  0  0  0  0  0  0  0
   20.1583   14.2527    9.4827 O   0  0  0  0  0  0  0  0  0  0  0  0
   19.4397   14.9597   11.4499 O   0  0  0  0  0  0  0  0  0  0  0  0
   18.1752   12.1899   11.5454 C   0  0  0  0  0  0  0  0  0  0  0  0
   17.5459   12.7615   12.4370 O   0  0  0  0  0  0  0  0  0  0  0  0
   17.6124   11.1833   10.7554 N   0  0  0  0  0  0  0  0  0  0  0  0
   16.4330   10.4273   11.0225 C   0  0  0  0  0  0  0  0  0  0  0  0
   15.7541   10.4947   12.2235 C   0  0  0  0  0  0  0  0  0  0  0  0
   14.8420    9.4958   12.5457 C   0  0  0  0  0  0  0  0  0  0  0  0
   14.1694    9.6512   13.6853 F   0  0  0  0  0  0  0  0  0  0  0  0
   14.5999    8.3955   11.7199 C   0  0  0  0  0  0  0  0  0  0  0  0
   13.8240    7.1798   12.1249 C   0  0  0  0  0  0  0  0  0  0  0  0
   15.1306    8.4414   10.4498 C   0  0  0  0  0  0  0  0  0  0  0  0
   15.9885    9.4790   10.0806 C   0  0  0  0  0  0  0  0  0  0  0  0
   16.5368    9.3775    8.8247 N   0  0  0  0  0  0  0  0  0  0  0  0
  1  2  1  0
  3  2  1  0
  3  4  1  1
  3  5  1  0
  5  6  2  0
  5  7  1  0
  3  8  1  0
  8  9  2  0
  8 10  1  0
 10 11  1  0
 11 12  2  0
 12 13  1  0
 13 14  1  0
 13 15  2  0
 15 16  1  0
 15 17  1  0
 17 18  2  0
 18 19  1  0
 18 11  1  0
M  END
>  <ref_pdb>  (562) 
c0270a

>  <inchikey>  (562) 
NWGFDPQAKFRINQ-GFCCVEGCSA-N

>  <original ID>  (562) 
NWGFDPQAKFRINQ-GFCCVEGCSA-N

>  <generation_date>  (562) 
None

>  <alias>  (562) 
None

>  <tags>  (562) 
[]

>  <ref_mols>  (562) 
c0692a,c1116a

>  <ref_url>  (562) 
None

>  <submitter_name>  (562) 
None

>  <exports>  (562) 
nan

>  <original SMILES>  (562) 
CO[C@@](C)(C(=O)O)C(=O)Nc1cc(F)c(C)cc1N

>  <method>  (562) 
None

>  <submitter_email>  (562) 
None

>  <HIPPO ID>  (562) 
115237

$$$$
LSFNXNINZSXXKG-ZDUSSCGKSA-N
     RDKit          3D

 19 19  0  0  0  0  0  0  0  0999 V2000
   21.7720   11.3908   10.4610 C   0  0  0  0  0  0  0  0  0  0  0  0
   20.3598   11.5305   10.4810 O   0  0  0  0  0  0  0  0  0  0  0  0
   19.8348   12.6539   11.1855 C   0  0  2  0  0  0  0  0  0  0  0  0
   20.2286   13.9607   10.4765 C   0  0  0  0  0  0  0  0  0  0  0  0
   20.2669   12.9995   12.6187 C   0  0  0  0  0  0  0  0  0  0  0  0
   19.6821   13.7787   13.3567 O   0  0  0  0  0  0  0  0  0  0  0  0
   21.4538   12.4780   12.9810 O   0  0  0  0  0  0  0  0  0  0  0  0
   18.2908   12.4214   11.2190 C   0  0  0  0  0  0  0  0  0  0  0  0
   17.5028   13.2457   11.6909 O   0  0  0  0  0  0  0  0  0  0  0  0
   17.8561   11.2144   10.6949 N   0  0  0  0  0  0  0  0  0  0  0  0
   16.6390   10.5593   10.9835 C   0  0  0  0  0  0  0  0  0  0  0  0
   16.1137    9.7125    9.9972 C   0  0  0  0  0  0  0  0  0  0  0  0
   15.0312    8.8869   10.2786 C   0  0  0  0  0  0  0  0  0  0  0  0
   14.2395    8.1968    9.2221 C   0  0  0  0  0  0  0  0  0  0  0  0
   14.6397    8.7441   11.5972 C   0  0  0  0  0  0  0  0  0  0  0  0
   15.0556    9.6654   12.5581 C   0  0  0  0  0  0  0  0  0  0  0  0
   14.4247    9.6625   13.9089 C   0  0  0  0  0  0  0  0  0  0  0  0
   16.0002   10.6471   12.2360 C   0  0  0  0  0  0  0  0  0  0  0  0
   16.4627   11.4896   13.2771 N   0  0  0  0  0  0  0  0  0  0  0  0
  1  2  1  0
  3  2  1  0
  3  4  1  6
  3  5  1  0
  5  6  2  0
  5  7  1  0
  3  8  1  0
  8  9  2  0
  8 10  1  0
 10 11  1  0
 11 12  2  0
 12 13  1  0
 13 14  1  0
 13 15  2  0
 15 16  1  0
 16 17  1  0
 16 18  2  0
 18 19  1  0
 18 11  1  0
M  END
>  <ref_pdb>  (563) 
c0270a

>  <inchikey>  (563) 
LSFNXNINZSXXKG-ZDUSSCGKSA-N

>  <original ID>  (563) 
LSFNXNINZSXXKG-ZDUSSCGKSA-N

>  <generation_date>  (563) 
None

>  <alias>  (563) 
None

>  <tags>  (563) 
[]

>  <ref_mols>  (563) 
c0692a,c1116a

>  <ref_url>  (563) 
None

>  <submitter_name>  (563) 
None

>  <exports>  (563) 
nan

>  <original SMILES>  (563) 
CO[C@](C)(C(=O)O)C(=O)Nc1cc(C)cc(C)c1N

>  <method>  (563) 
None

>  <submitter_email>  (563) 
None

>  <HIPPO ID>  (563) 
115244

$$$$
LSFNXNINZSXXKG-CYBMUJFWSA-N
     RDKit          3D

 19 19  0  0  0  0  0  0  0  0999 V2000
   21.7527   11.5853   10.2602 C   0  0  0  0  0  0  0  0  0  0  0  0
   20.3330   11.6162   10.3815 O   0  0  0  0  0  0  0  0  0  0  0  0
   19.8075   12.6915   11.1715 C   0  0  1  0  0  0  0  0  0  0  0  0
   20.5518   12.8042   12.5063 C   0  0  0  0  0  0  0  0  0  0  0  0
   19.9347   14.0907   10.5385 C   0  0  0  0  0  0  0  0  0  0  0  0
   20.1976   14.3524    9.3728 O   0  0  0  0  0  0  0  0  0  0  0  0
   19.7261   15.1132   11.3958 O   0  0  0  0  0  0  0  0  0  0  0  0
   18.2975   12.3752   11.3896 C   0  0  0  0  0  0  0  0  0  0  0  0
   17.5671   13.1220   12.0474 O   0  0  0  0  0  0  0  0  0  0  0  0
   17.8257   11.2286   10.7670 N   0  0  0  0  0  0  0  0  0  0  0  0
   16.6249   10.5297   11.0407 C   0  0  0  0  0  0  0  0  0  0  0  0
   16.0841    9.7532   10.0037 C   0  0  0  0  0  0  0  0  0  0  0  0
   15.0053    8.9038   10.2335 C   0  0  0  0  0  0  0  0  0  0  0  0
   14.1830    8.3223    9.1335 C   0  0  0  0  0  0  0  0  0  0  0  0
   14.6188    8.6703   11.5398 C   0  0  0  0  0  0  0  0  0  0  0  0
   15.0542    9.5139   12.5611 C   0  0  0  0  0  0  0  0  0  0  0  0
   14.4335    9.4132   13.9129 C   0  0  0  0  0  0  0  0  0  0  0  0
   16.0029   10.5130   12.3044 C   0  0  0  0  0  0  0  0  0  0  0  0
   16.4804   11.2647   13.4057 N   0  0  0  0  0  0  0  0  0  0  0  0
  1  2  1  0
  3  2  1  0
  3  4  1  1
  3  5  1  0
  5  6  2  0
  5  7  1  0
  3  8  1  0
  8  9  2  0
  8 10  1  0
 10 11  1  0
 11 12  2  0
 12 13  1  0
 13 14  1  0
 13 15  2  0
 15 16  1  0
 16 17  1  0
 16 18  2  0
 18 19  1  0
 18 11  1  0
M  END
>  <ref_pdb>  (564) 
c0270a

>  <inchikey>  (564) 
LSFNXNINZSXXKG-CYBMUJFWSA-N

>  <original ID>  (564) 
LSFNXNINZSXXKG-CYBMUJFWSA-N

>  <generation_date>  (564) 
None

>  <alias>  (564) 
None

>  <tags>  (564) 
[]

>  <ref_mols>  (564) 
c0692a,c1116a

>  <ref_url>  (564) 
None

>  <submitter_name>  (564) 
None

>  <exports>  (564) 
nan

>  <original SMILES>  (564) 
CO[C@@](C)(C(=O)O)C(=O)Nc1cc(C)cc(C)c1N

>  <method>  (564) 
None

>  <submitter_email>  (564) 
None

>  <HIPPO ID>  (564) 
115245

$$$$
QCHISGZJXHRSIE-LBPRGKRZSA-N
     RDKit          3D

 19 19  0  0  0  0  0  0  0  0999 V2000
   21.6554   11.3110   10.3248 C   0  0  0  0  0  0  0  0  0  0  0  0
   20.2416   11.4821   10.3241 O   0  0  0  0  0  0  0  0  0  0  0  0
   19.7335   12.5482   11.1362 C   0  0  2  0  0  0  0  0  0  0  0  0
   20.1241   13.9067   10.5263 C   0  0  0  0  0  0  0  0  0  0  0  0
   20.3539   12.7081   12.5220 C   0  0  0  0  0  0  0  0  0  0  0  0
   21.3736   12.1614   12.9121 O   0  0  0  0  0  0  0  0  0  0  0  0
   19.7494   13.6358   13.2871 O   0  0  0  0  0  0  0  0  0  0  0  0
   18.1830   12.3017   11.2480 C   0  0  0  0  0  0  0  0  0  0  0  0
   17.4207   13.0993   11.7938 O   0  0  0  0  0  0  0  0  0  0  0  0
   17.7274   11.1217   10.6562 N   0  0  0  0  0  0  0  0  0  0  0  0
   16.5474   10.4042   10.9922 C   0  0  0  0  0  0  0  0  0  0  0  0
   16.0276    9.4402   10.1069 C   0  0  0  0  0  0  0  0  0  0  0  0
   16.2428    9.4965    8.7405 N   0  0  0  0  0  0  0  0  0  0  0  0
   15.0982    8.4917   10.5451 C   0  0  0  0  0  0  0  0  0  0  0  0
   14.6429    8.5184   11.8500 C   0  0  0  0  0  0  0  0  0  0  0  0
   15.0121    9.5769   12.6765 C   0  0  0  0  0  0  0  0  0  0  0  0
   14.3870    9.8370   13.9989 C   0  0  0  0  0  0  0  0  0  0  0  0
   15.9895   10.4749   12.2608 C   0  0  0  0  0  0  0  0  0  0  0  0
   16.4682   11.3084   13.1923 F   0  0  0  0  0  0  0  0  0  0  0  0
  1  2  1  0
  3  2  1  0
  3  4  1  6
  3  5  1  0
  5  6  2  0
  5  7  1  0
  3  8  1  0
  8  9  2  0
  8 10  1  0
 10 11  1  0
 11 12  2  0
 12 13  1  0
 12 14  1  0
 14 15  2  0
 15 16  1  0
 16 17  1  0
 16 18  2  0
 18 19  1  0
 18 11  1  0
M  END
>  <ref_pdb>  (565) 
c0270a

>  <inchikey>  (565) 
QCHISGZJXHRSIE-LBPRGKRZSA-N

>  <original ID>  (565) 
QCHISGZJXHRSIE-LBPRGKRZSA-N

>  <generation_date>  (565) 
None

>  <alias>  (565) 
None

>  <tags>  (565) 
[]

>  <ref_mols>  (565) 
c0692a,c1116a

>  <ref_url>  (565) 
None

>  <submitter_name>  (565) 
None

>  <exports>  (565) 
nan

>  <original SMILES>  (565) 
CO[C@](C)(C(=O)O)C(=O)Nc1c(N)ccc(C)c1F

>  <method>  (565) 
None

>  <submitter_email>  (565) 
None

>  <HIPPO ID>  (565) 
115253

$$$$
QCHISGZJXHRSIE-GFCCVEGCSA-N
     RDKit          3D

 19 19  0  0  0  0  0  0  0  0999 V2000
   21.6773   11.0706   10.5955 C   0  0  0  0  0  0  0  0  0  0  0  0
   20.2758   11.2200   10.7715 O   0  0  0  0  0  0  0  0  0  0  0  0
   19.7940   12.5215   11.1396 C   0  0  1  0  0  0  0  0  0  0  0  0
   20.2755   12.9340   12.5453 C   0  0  0  0  0  0  0  0  0  0  0  0
   20.2821   13.7052   10.2786 C   0  0  0  0  0  0  0  0  0  0  0  0
   19.6615   14.6322    9.7957 O   0  0  0  0  0  0  0  0  0  0  0  0
   21.6187   13.7170   10.0861 O   0  0  0  0  0  0  0  0  0  0  0  0
   18.2301   12.3382   11.2038 C   0  0  0  0  0  0  0  0  0  0  0  0
   17.4987   13.1621   11.7556 O   0  0  0  0  0  0  0  0  0  0  0  0
   17.7310   11.1769   10.6064 N   0  0  0  0  0  0  0  0  0  0  0  0
   16.5533   10.4637   10.9697 C   0  0  0  0  0  0  0  0  0  0  0  0
   16.0420    9.4692   10.1109 C   0  0  0  0  0  0  0  0  0  0  0  0
   16.2551    9.4924    8.7434 N   0  0  0  0  0  0  0  0  0  0  0  0
   15.1222    8.5228   10.5727 C   0  0  0  0  0  0  0  0  0  0  0  0
   14.6661    8.5797   11.8755 C   0  0  0  0  0  0  0  0  0  0  0  0
   15.0213    9.6656   12.6717 C   0  0  0  0  0  0  0  0  0  0  0  0
   14.3903    9.9528   13.9859 C   0  0  0  0  0  0  0  0  0  0  0  0
   15.9895   10.5646   12.2333 C   0  0  0  0  0  0  0  0  0  0  0  0
   16.4458   11.4348   13.1414 F   0  0  0  0  0  0  0  0  0  0  0  0
  1  2  1  0
  3  2  1  0
  3  4  1  1
  3  5  1  0
  5  6  2  0
  5  7  1  0
  3  8  1  0
  8  9  2  0
  8 10  1  0
 10 11  1  0
 11 12  2  0
 12 13  1  0
 12 14  1  0
 14 15  2  0
 15 16  1  0
 16 17  1  0
 16 18  2  0
 18 19  1  0
 18 11  1  0
M  END
>  <ref_pdb>  (566) 
c0270a

>  <inchikey>  (566) 
QCHISGZJXHRSIE-GFCCVEGCSA-N

>  <original ID>  (566) 
QCHISGZJXHRSIE-GFCCVEGCSA-N

>  <generation_date>  (566) 
None

>  <alias>  (566) 
None

>  <tags>  (566) 
[]

>  <ref_mols>  (566) 
c0692a,c1116a

>  <ref_url>  (566) 
None

>  <submitter_name>  (566) 
None

>  <exports>  (566) 
nan

>  <original SMILES>  (566) 
CO[C@@](C)(C(=O)O)C(=O)Nc1c(N)ccc(C)c1F

>  <method>  (566) 
None

>  <submitter_email>  (566) 
None

>  <HIPPO ID>  (566) 
115254

$$$$
JTBPJYBCBXABPD-NSHDSACASA-N
     RDKit          3D

 19 19  0  0  0  0  0  0  0  0999 V2000
   21.6445   11.3144   10.4808 C   0  0  0  0  0  0  0  0  0  0  0  0
   20.2284   11.4257   10.5193 O   0  0  0  0  0  0  0  0  0  0  0  0
   19.6845   12.5481   11.2137 C   0  0  2  0  0  0  0  0  0  0  0  0
   20.0853   13.8507   10.5022 C   0  0  0  0  0  0  0  0  0  0  0  0
   20.1517   12.9482   12.6254 C   0  0  0  0  0  0  0  0  0  0  0  0
   19.6189   13.7942   13.3284 O   0  0  0  0  0  0  0  0  0  0  0  0
   21.3272   12.3993   12.9875 O   0  0  0  0  0  0  0  0  0  0  0  0
   18.1284   12.2551   11.2745 C   0  0  0  0  0  0  0  0  0  0  0  0
   17.3436   12.9579   11.9124 O   0  0  0  0  0  0  0  0  0  0  0  0
   17.6819   11.1344   10.5636 N   0  0  0  0  0  0  0  0  0  0  0  0
   16.5099   10.3767   10.8280 C   0  0  0  0  0  0  0  0  0  0  0  0
   15.9544   10.3695   12.0926 C   0  0  0  0  0  0  0  0  0  0  0  0
   15.0669    9.3537   12.4628 C   0  0  0  0  0  0  0  0  0  0  0  0
   14.4838    9.4671   14.4231 I   0  0  0  0  0  0  0  0  0  0  0  0
   14.6899    8.3573   11.5577 C   0  0  0  0  0  0  0  0  0  0  0  0
   13.7472    6.9564   11.9315 Cl  0  0  0  0  0  0  0  0  0  0  0  0
   15.1074    8.4677   10.2489 C   0  0  0  0  0  0  0  0  0  0  0  0
   15.9837    9.4847    9.8786 C   0  0  0  0  0  0  0  0  0  0  0  0
   16.3997    9.4549    8.5556 N   0  0  0  0  0  0  0  0  0  0  0  0
  1  2  1  0
  3  2  1  0
  3  4  1  6
  3  5  1  0
  5  6  2  0
  5  7  1  0
  3  8  1  0
  8  9  2  0
  8 10  1  0
 10 11  1  0
 11 12  2  0
 12 13  1  0
 13 14  1  0
 13 15  2  0
 15 16  1  0
 15 17  1  0
 17 18  2  0
 18 19  1  0
 18 11  1  0
M  END
>  <ref_pdb>  (567) 
c0270a

>  <inchikey>  (567) 
JTBPJYBCBXABPD-NSHDSACASA-N

>  <original ID>  (567) 
JTBPJYBCBXABPD-NSHDSACASA-N

>  <generation_date>  (567) 
None

>  <alias>  (567) 
None

>  <tags>  (567) 
[]

>  <ref_mols>  (567) 
c0692a,c1116a

>  <ref_url>  (567) 
None

>  <submitter_name>  (567) 
None

>  <exports>  (567) 
['/opt/xchem-fragalysis-2/maxwin/CHIKV_HIPPO/hippo_prod/CHIKV_prod11_recipes/Recipe_1GERJCJ_poses.sdf']

>  <original SMILES>  (567) 
CO[C@](C)(C(=O)O)C(=O)Nc1cc(I)c(Cl)cc1N

>  <method>  (567) 
None

>  <submitter_email>  (567) 
None

>  <HIPPO ID>  (567) 
115256

$$$$
JTBPJYBCBXABPD-LLVKDONJSA-N
     RDKit          3D

 19 19  0  0  0  0  0  0  0  0999 V2000
   21.6452   11.3963   10.2518 C   0  0  0  0  0  0  0  0  0  0  0  0
   20.2239   11.5047   10.3088 O   0  0  0  0  0  0  0  0  0  0  0  0
   19.7058   12.5203   11.1670 C   0  0  1  0  0  0  0  0  0  0  0  0
   20.5365   12.6426   12.4596 C   0  0  0  0  0  0  0  0  0  0  0  0
   19.7922   13.9820   10.6981 C   0  0  0  0  0  0  0  0  0  0  0  0
   19.4150   14.9667   11.3150 O   0  0  0  0  0  0  0  0  0  0  0  0
   20.4763   14.1828    9.5540 O   0  0  0  0  0  0  0  0  0  0  0  0
   18.2066   12.1265   11.4612 C   0  0  0  0  0  0  0  0  0  0  0  0
   17.5690   12.6590   12.3710 O   0  0  0  0  0  0  0  0  0  0  0  0
   17.6532   11.1398   10.6306 N   0  0  0  0  0  0  0  0  0  0  0  0
   16.4972   10.3471   10.8876 C   0  0  0  0  0  0  0  0  0  0  0  0
   15.9467   10.2774   12.1537 C   0  0  0  0  0  0  0  0  0  0  0  0
   15.0500    9.2561   12.4853 C   0  0  0  0  0  0  0  0  0  0  0  0
   14.4513    9.3106   14.4459 I   0  0  0  0  0  0  0  0  0  0  0  0
   14.6644    8.3012   11.5433 C   0  0  0  0  0  0  0  0  0  0  0  0
   13.7012    6.9015   11.8627 Cl  0  0  0  0  0  0  0  0  0  0  0  0
   15.0829    8.4634   10.2404 C   0  0  0  0  0  0  0  0  0  0  0  0
   15.9588    9.4960    9.9046 C   0  0  0  0  0  0  0  0  0  0  0  0
   16.3684    9.5002    8.5794 N   0  0  0  0  0  0  0  0  0  0  0  0
  1  2  1  0
  3  2  1  0
  3  4  1  1
  3  5  1  0
  5  6  2  0
  5  7  1  0
  3  8  1  0
  8  9  2  0
  8 10  1  0
 10 11  1  0
 11 12  2  0
 12 13  1  0
 13 14  1  0
 13 15  2  0
 15 16  1  0
 15 17  1  0
 17 18  2  0
 18 19  1  0
 18 11  1  0
M  END
>  <ref_pdb>  (568) 
c0270a

>  <inchikey>  (568) 
JTBPJYBCBXABPD-LLVKDONJSA-N

>  <original ID>  (568) 
JTBPJYBCBXABPD-LLVKDONJSA-N

>  <generation_date>  (568) 
None

>  <alias>  (568) 
None

>  <tags>  (568) 
[]

>  <ref_mols>  (568) 
c0692a,c1116a

>  <ref_url>  (568) 
None

>  <submitter_name>  (568) 
None

>  <exports>  (568) 
['/opt/xchem-fragalysis-2/maxwin/CHIKV_HIPPO/hippo_prod/CHIKV_prod11_recipes/Recipe_1GERJCJ_poses.sdf']

>  <original SMILES>  (568) 
CO[C@@](C)(C(=O)O)C(=O)Nc1cc(I)c(Cl)cc1N

>  <method>  (568) 
None

>  <submitter_email>  (568) 
None

>  <HIPPO ID>  (568) 
115257

$$$$
XRYMJFZPRACREX-NSHDSACASA-N
     RDKit          3D

 19 19  0  0  0  0  0  0  0  0999 V2000
   21.6042   11.2903   10.3414 C   0  0  0  0  0  0  0  0  0  0  0  0
   20.1887   11.4544   10.3594 O   0  0  0  0  0  0  0  0  0  0  0  0
   19.6870   12.5177   11.1790 C   0  0  2  0  0  0  0  0  0  0  0  0
   20.0507   13.8715   10.5490 C   0  0  0  0  0  0  0  0  0  0  0  0
   20.3449   12.7142   12.5469 C   0  0  0  0  0  0  0  0  0  0  0  0
   21.3637   12.1632   12.9311 O   0  0  0  0  0  0  0  0  0  0  0  0
   19.7783   13.6810   13.2948 O   0  0  0  0  0  0  0  0  0  0  0  0
   18.1394   12.2254   11.3371 C   0  0  0  0  0  0  0  0  0  0  0  0
   17.4034   12.8974   12.0605 O   0  0  0  0  0  0  0  0  0  0  0  0
   17.6469   11.1407   10.6015 N   0  0  0  0  0  0  0  0  0  0  0  0
   16.4766   10.3785   10.8679 C   0  0  0  0  0  0  0  0  0  0  0  0
   15.8906   10.3718   12.1207 C   0  0  0  0  0  0  0  0  0  0  0  0
   14.9968    9.3544   12.4715 C   0  0  0  0  0  0  0  0  0  0  0  0
   14.3529    9.4999   14.0485 Cl  0  0  0  0  0  0  0  0  0  0  0  0
   14.6855    8.3249   11.5766 C   0  0  0  0  0  0  0  0  0  0  0  0
   13.6462    6.5462   12.0141 I   0  0  0  0  0  0  0  0  0  0  0  0
   15.1207    8.4420   10.2719 C   0  0  0  0  0  0  0  0  0  0  0  0
   15.9648    9.4888    9.9071 C   0  0  0  0  0  0  0  0  0  0  0  0
   16.3782    9.4797    8.5831 N   0  0  0  0  0  0  0  0  0  0  0  0
  1  2  1  0
  3  2  1  0
  3  4  1  6
  3  5  1  0
  5  6  2  0
  5  7  1  0
  3  8  1  0
  8  9  2  0
  8 10  1  0
 10 11  1  0
 11 12  2  0
 12 13  1  0
 13 14  1  0
 13 15  2  0
 15 16  1  0
 15 17  1  0
 17 18  2  0
 18 19  1  0
 18 11  1  0
M  END
>  <ref_pdb>  (569) 
c0270a

>  <inchikey>  (569) 
XRYMJFZPRACREX-NSHDSACASA-N

>  <original ID>  (569) 
XRYMJFZPRACREX-NSHDSACASA-N

>  <generation_date>  (569) 
None

>  <alias>  (569) 
None

>  <tags>  (569) 
[]

>  <ref_mols>  (569) 
c0692a,c1116a

>  <ref_url>  (569) 
None

>  <submitter_name>  (569) 
None

>  <exports>  (569) 
['/opt/xchem-fragalysis-2/maxwin/CHIKV_HIPPO/hippo_prod/CHIKV_prod11_recipes/Recipe_1GERJCJ_poses.sdf']

>  <original SMILES>  (569) 
CO[C@](C)(C(=O)O)C(=O)Nc1cc(Cl)c(I)cc1N

>  <method>  (569) 
None

>  <submitter_email>  (569) 
None

>  <HIPPO ID>  (569) 
115258

$$$$
XRYMJFZPRACREX-LLVKDONJSA-N
     RDKit          3D

 19 19  0  0  0  0  0  0  0  0999 V2000
   21.6345   11.1733   10.6473 C   0  0  0  0  0  0  0  0  0  0  0  0
   20.2290   11.2705   10.8355 O   0  0  0  0  0  0  0  0  0  0  0  0
   19.7028   12.5632   11.1727 C   0  0  1  0  0  0  0  0  0  0  0  0
   20.0685   12.9895   12.6070 C   0  0  0  0  0  0  0  0  0  0  0  0
   20.2591   13.7518   10.3570 C   0  0  0  0  0  0  0  0  0  0  0  0
   19.7223   14.4913    9.5567 O   0  0  0  0  0  0  0  0  0  0  0  0
   21.5767   13.9723   10.5758 O   0  0  0  0  0  0  0  0  0  0  0  0
   18.1398   12.3309   11.1853 C   0  0  0  0  0  0  0  0  0  0  0  0
   17.3716   13.0812   11.7936 O   0  0  0  0  0  0  0  0  0  0  0  0
   17.6723   11.1879   10.5273 N   0  0  0  0  0  0  0  0  0  0  0  0
   16.4968   10.4418   10.8186 C   0  0  0  0  0  0  0  0  0  0  0  0
   15.9031   10.4879   12.0661 C   0  0  0  0  0  0  0  0  0  0  0  0
   15.0177    9.4744   12.4543 C   0  0  0  0  0  0  0  0  0  0  0  0
   14.3666    9.6712   14.0225 Cl  0  0  0  0  0  0  0  0  0  0  0  0
   14.7215    8.4033   11.6019 C   0  0  0  0  0  0  0  0  0  0  0  0
   13.7160    6.6212   12.1062 I   0  0  0  0  0  0  0  0  0  0  0  0
   15.1580    8.4705   10.2951 C   0  0  0  0  0  0  0  0  0  0  0  0
   15.9974    9.5061    9.8949 C   0  0  0  0  0  0  0  0  0  0  0  0
   16.4124    9.4529    8.5716 N   0  0  0  0  0  0  0  0  0  0  0  0
  1  2  1  0
  3  2  1  0
  3  4  1  1
  3  5  1  0
  5  6  2  0
  5  7  1  0
  3  8  1  0
  8  9  2  0
  8 10  1  0
 10 11  1  0
 11 12  2  0
 12 13  1  0
 13 14  1  0
 13 15  2  0
 15 16  1  0
 15 17  1  0
 17 18  2  0
 18 19  1  0
 18 11  1  0
M  END
>  <ref_pdb>  (570) 
c0270a

>  <inchikey>  (570) 
XRYMJFZPRACREX-LLVKDONJSA-N

>  <original ID>  (570) 
XRYMJFZPRACREX-LLVKDONJSA-N

>  <generation_date>  (570) 
None

>  <alias>  (570) 
None

>  <tags>  (570) 
[]

>  <ref_mols>  (570) 
c0692a,c1116a

>  <ref_url>  (570) 
None

>  <submitter_name>  (570) 
None

>  <exports>  (570) 
['/opt/xchem-fragalysis-2/maxwin/CHIKV_HIPPO/hippo_prod/CHIKV_prod11_recipes/Recipe_1GERJCJ_poses.sdf']

>  <original SMILES>  (570) 
CO[C@@](C)(C(=O)O)C(=O)Nc1cc(Cl)c(I)cc1N

>  <method>  (570) 
None

>  <submitter_email>  (570) 
None

>  <HIPPO ID>  (570) 
115259

$$$$
HZKSPMGAPHNCIK-LBPRGKRZSA-N
     RDKit          3D

 19 19  0  0  0  0  0  0  0  0999 V2000
   21.8110   11.7128   10.8463 C   0  0  0  0  0  0  0  0  0  0  0  0
   20.4697   11.6247   11.3020 O   0  0  0  0  0  0  0  0  0  0  0  0
   19.6962   12.8183   11.5111 C   0  0  2  0  0  0  0  0  0  0  0  0
   20.1325   13.9622   10.5918 C   0  0  0  0  0  0  0  0  0  0  0  0
   20.1207   13.3578   12.8665 C   0  0  0  0  0  0  0  0  0  0  0  0
   21.2078   13.1584   13.3895 O   0  0  0  0  0  0  0  0  0  0  0  0
   19.2912   14.2468   13.4373 O   0  0  0  0  0  0  0  0  0  0  0  0
   18.1011   12.5550   11.4434 C   0  0  0  0  0  0  0  0  0  0  0  0
   17.2941   13.3471   11.9509 O   0  0  0  0  0  0  0  0  0  0  0  0
   17.5995   11.4589   10.7226 N   0  0  0  0  0  0  0  0  0  0  0  0
   18.5295   10.5745   10.0959 C   0  0  0  0  0  0  0  0  0  0  0  0
   16.3399   10.7884   10.9797 C   0  0  0  0  0  0  0  0  0  0  0  0
   15.7747    9.9999    9.9402 C   0  0  0  0  0  0  0  0  0  0  0  0
   14.9444    8.9169   10.1941 C   0  0  0  0  0  0  0  0  0  0  0  0
   14.6245    8.6390   11.5061 C   0  0  0  0  0  0  0  0  0  0  0  0
   15.0014    9.5403   12.5084 C   0  0  0  0  0  0  0  0  0  0  0  0
   14.3550    9.2858   14.2596 Br  0  0  0  0  0  0  0  0  0  0  0  0
   15.8258   10.6513   12.2719 C   0  0  0  0  0  0  0  0  0  0  0  0
   16.3343   11.3812   13.3772 N   0  0  0  0  0  0  0  0  0  0  0  0
  1  2  1  0
  3  2  1  0
  3  4  1  6
  3  5  1  0
  5  6  2  0
  5  7  1  0
  3  8  1  0
  8  9  2  0
  8 10  1  0
 10 11  1  0
 10 12  1  0
 12 13  2  0
 13 14  1  0
 14 15  2  0
 15 16  1  0
 16 17  1  0
 16 18  2  0
 18 19  1  0
 18 12  1  0
M  END
>  <ref_pdb>  (571) 
c0270a

>  <inchikey>  (571) 
HZKSPMGAPHNCIK-LBPRGKRZSA-N

>  <original ID>  (571) 
HZKSPMGAPHNCIK-LBPRGKRZSA-N

>  <generation_date>  (571) 
None

>  <alias>  (571) 
None

>  <tags>  (571) 
[]

>  <ref_mols>  (571) 
c0692a,c1116a

>  <ref_url>  (571) 
None

>  <submitter_name>  (571) 
None

>  <exports>  (571) 
nan

>  <original SMILES>  (571) 
CO[C@](C)(C(=O)O)C(=O)N(C)c1cccc(Br)c1N

>  <method>  (571) 
None

>  <submitter_email>  (571) 
None

>  <HIPPO ID>  (571) 
115260

$$$$
HZKSPMGAPHNCIK-GFCCVEGCSA-N
     RDKit          3D

 19 19  0  0  0  0  0  0  0  0999 V2000
   21.9344   12.1956   10.4927 C   0  0  0  0  0  0  0  0  0  0  0  0
   20.5198   12.1431   10.4088 O   0  0  0  0  0  0  0  0  0  0  0  0
   19.7372   13.0138   11.2216 C   0  0  1  0  0  0  0  0  0  0  0  0
   20.3267   13.0883   12.6324 C   0  0  0  0  0  0  0  0  0  0  0  0
   19.8675   14.4509   10.6991 C   0  0  0  0  0  0  0  0  0  0  0  0
   19.8183   15.4777   11.3579 O   0  0  0  0  0  0  0  0  0  0  0  0
   20.1148   14.5788    9.3747 O   0  0  0  0  0  0  0  0  0  0  0  0
   18.1711   12.6319   11.3403 C   0  0  0  0  0  0  0  0  0  0  0  0
   17.3881   13.4065   11.9085 O   0  0  0  0  0  0  0  0  0  0  0  0
   17.6976   11.4470   10.7551 N   0  0  0  0  0  0  0  0  0  0  0  0
   18.6533   10.4725   10.3294 C   0  0  0  0  0  0  0  0  0  0  0  0
   16.4056   10.8356   10.9661 C   0  0  0  0  0  0  0  0  0  0  0  0
   15.8983    9.9972    9.9342 C   0  0  0  0  0  0  0  0  0  0  0  0
   15.0273    8.9473   10.1881 C   0  0  0  0  0  0  0  0  0  0  0  0
   14.6457    8.7278   11.4943 C   0  0  0  0  0  0  0  0  0  0  0  0
   14.9973    9.6575   12.4813 C   0  0  0  0  0  0  0  0  0  0  0  0
   14.3378    9.4296   14.2307 Br  0  0  0  0  0  0  0  0  0  0  0  0
   15.8346   10.7568   12.2379 C   0  0  0  0  0  0  0  0  0  0  0  0
   16.3166   11.5174   13.3334 N   0  0  0  0  0  0  0  0  0  0  0  0
  1  2  1  0
  3  2  1  0
  3  4  1  1
  3  5  1  0
  5  6  2  0
  5  7  1  0
  3  8  1  0
  8  9  2  0
  8 10  1  0
 10 11  1  0
 10 12  1  0
 12 13  2  0
 13 14  1  0
 14 15  2  0
 15 16  1  0
 16 17  1  0
 16 18  2  0
 18 19  1  0
 18 12  1  0
M  END
>  <ref_pdb>  (572) 
c0270a

>  <inchikey>  (572) 
HZKSPMGAPHNCIK-GFCCVEGCSA-N

>  <original ID>  (572) 
HZKSPMGAPHNCIK-GFCCVEGCSA-N

>  <generation_date>  (572) 
None

>  <alias>  (572) 
None

>  <tags>  (572) 
[]

>  <ref_mols>  (572) 
c0692a,c1116a

>  <ref_url>  (572) 
None

>  <submitter_name>  (572) 
None

>  <exports>  (572) 
nan

>  <original SMILES>  (572) 
CO[C@@](C)(C(=O)O)C(=O)N(C)c1cccc(Br)c1N

>  <method>  (572) 
None

>  <submitter_email>  (572) 
None

>  <HIPPO ID>  (572) 
115261

$$$$
