ver_1.2
     RDKit          3D

 16 17  0  0  0  0  0  0  0  0999 V2000
   -4.3930    0.4499    0.4029 C   0  0  0  0  0  0  0  0  0  0  0  0
   -4.1933    0.0204   -1.0163 C   0  0  0  0  0  0  0  0  0  0  0  0
   -2.9043   -0.6926   -1.0717 C   0  0  0  0  0  0  0  0  0  0  0  0
   -1.8556    0.1411   -1.3372 N   0  0  0  0  0  0  0  0  0  0  0  0
   -0.7059   -0.5936   -1.3712 C   0  0  0  0  0  0  0  0  0  0  0  0
    0.6901   -0.1430   -1.6218 C   0  0  0  0  0  0  0  0  0  0  0  0
    1.3577    0.2259   -0.3671 N   0  0  0  0  0  0  0  0  0  0  0  0
    1.1683    1.5469   -0.0844 C   0  0  0  0  0  0  0  0  0  0  0  0
    1.7383    2.0727    1.0815 C   0  0  0  0  0  0  0  0  0  0  0  0
    2.4751    1.2526    1.9166 C   0  0  0  0  0  0  0  0  0  0  0  0
    3.2955    1.8649    3.5299 Br  0  0  0  0  0  0  0  0  0  0  0  0
    2.6341   -0.0869    1.5760 C   0  0  0  0  0  0  0  0  0  0  0  0
    2.0730   -0.5792    0.4397 C   0  0  0  0  0  0  0  0  0  0  0  0
    2.1186   -1.7337   -0.0031 O   0  0  0  0  0  0  0  0  0  0  0  0
   -1.1050   -1.8556   -1.1228 N   0  0  0  0  0  0  0  0  0  0  0  0
   -2.3935   -1.8900   -0.9510 O   0  0  0  0  0  0  0  0  0  0  0  0
  1  2  1  0
  2  3  1  0
  3  4  2  0
  4  5  1  0
  5  6  1  0
  6  7  1  0
  7  8  1  0
  8  9  2  0
  9 10  1  0
 10 11  1  0
 10 12  2  0
 12 13  1  0
 13 14  2  0
  5 15  2  0
 15 16  1  0
 16  3  1  0
 13  7  1  0
M  END
>  <ref_url>  (1) 
https://hippo.winokan.com

>  <submitter_name>  (1) 
Max Winokan

>  <submitter_email>  (1) 
max.winokan@diamond.ac.uk

>  <submitter_institution>  (1) 
DLS

>  <generation_date>  (1) 
2024-10-15

>  <method>  (1) 
HIPPO 1GERJCJ

>  <exports>  (1) 
exports

>  <smiles>  (1) 
smiles

>  <ref_mols>  (1) 
fragment inspirations

>  <original ID>  (1) 
original ID

$$$$
QQERROZMPKKQER-UHFFFAOYSA-N
     RDKit          3D

 16 17  0  0  0  0  0  0  0  0999 V2000
   13.9020    8.9383    9.0983 C   0  0  0  0  0  0  0  0  0  0  0  0
   14.6703    8.3405   10.2557 C   0  0  0  0  0  0  0  0  0  0  0  0
   14.4865    6.8874   10.4794 C   0  0  0  0  0  0  0  0  0  0  0  0
   15.2881    6.0778   11.1361 N   0  0  0  0  0  0  0  0  0  0  0  0
   14.7503    4.8440   10.8572 C   0  0  0  0  0  0  0  0  0  0  0  0
   15.4574    3.5660   11.1690 C   0  0  0  0  0  0  0  0  0  0  0  0
   16.1233    3.5930   12.4794 N   0  0  0  0  0  0  0  0  0  0  0  0
   15.5405    2.9290   13.5427 C   0  0  0  0  0  0  0  0  0  0  0  0
   16.1190    2.8649   14.7442 C   0  0  0  0  0  0  0  0  0  0  0  0
   17.3720    3.5306   14.9626 C   0  0  0  0  0  0  0  0  0  0  0  0
   18.1084    3.4454   16.6687 Br  0  0  0  0  0  0  0  0  0  0  0  0
   17.9714    4.1819   13.9599 C   0  0  0  0  0  0  0  0  0  0  0  0
   17.3781    4.1783   12.5981 C   0  0  0  0  0  0  0  0  0  0  0  0
   18.0274    4.6782   11.6786 O   0  0  0  0  0  0  0  0  0  0  0  0
   13.6192    4.8813   10.1346 N   0  0  0  0  0  0  0  0  0  0  0  0
   13.4358    6.2469    9.8918 O   0  0  0  0  0  0  0  0  0  0  0  0
  1  2  1  0
  2  3  1  0
  3  4  2  0
  4  5  1  0
  5  6  1  0
  6  7  1  0
  7  8  1  0
  8  9  2  0
  9 10  1  0
 10 11  1  0
 10 12  2  0
 12 13  1  0
 13 14  2  0
  5 15  2  0
 15 16  1  0
 16  3  1  0
 13  7  1  0
M  END
>  <HIPPO ID>  (1) 
6251

>  <alias>  (1) 
None

>  <ref_mols>  (1) 
c0316a,c1091a

>  <submitter_email>  (1) 
None

>  <ref_pdb>  (1) 
c0300a

>  <inchikey>  (1) 
QQERROZMPKKQER-UHFFFAOYSA-N

>  <generation_date>  (1) 
None

>  <original ID>  (1) 
QQERROZMPKKQER-UHFFFAOYSA-N

>  <tags>  (1) 
['Syndirella base']

>  <exports>  (1) 
['/opt/xchem-fragalysis-2/maxwin/CHIKV_HIPPO/hippo_prod/CHIKV_prod11_recipes/Recipe_1G8PPKY_poses.sdf', '/opt/xchem-fragalysis-2/maxwin/CHIKV_HIPPO/web/web_resources/pose_sdfs/modal_c1917_poses.sdf']

>  <method>  (1) 
None

>  <submitter_name>  (1) 
None

>  <original SMILES>  (1) 
CCc1nc(Cn2ccc(Br)cc2=O)no1

>  <ref_url>  (1) 
None

$$$$
MMXSHBZOILNLPJ-UHFFFAOYSA-N
     RDKit          3D

 14 15  0  0  0  0  0  0  0  0999 V2000
   13.4627   13.2134   13.8958 C   0  0  0  0  0  0  0  0  0  0  0  0
   14.3058   13.0535   12.6365 C   0  0  0  0  0  0  0  0  0  0  0  0
   15.2394   14.2519   12.7030 C   0  0  0  0  0  0  0  0  0  0  0  0
   13.5096   13.1566   11.3159 C   0  0  0  0  0  0  0  0  0  0  0  0
   14.8463   11.6333   12.6262 C   0  0  0  0  0  0  0  0  0  0  0  0
   15.1265   10.9216   13.7809 C   0  0  0  0  0  0  0  0  0  0  0  0
   15.1493    9.5760   13.8151 N   0  0  0  0  0  0  0  0  0  0  0  0
   14.9543    8.9451   12.6464 C   0  0  0  0  0  0  0  0  0  0  0  0
   14.8571    7.5637   12.6234 C   0  0  0  0  0  0  0  0  0  0  0  0
   14.6444    6.8849   11.4266 C   0  0  0  0  0  0  0  0  0  0  0  0
   14.5565    7.5960   10.2357 C   0  0  0  0  0  0  0  0  0  0  0  0
   14.7094    8.9777   10.2306 C   0  0  0  0  0  0  0  0  0  0  0  0
   14.8668    9.6613   11.4274 C   0  0  0  0  0  0  0  0  0  0  0  0
   14.8664   10.9978   11.4272 N   0  0  0  0  0  0  0  0  0  0  0  0
  1  2  1  0
  2  3  1  0
  2  4  1  0
  2  5  1  0
  5  6  2  0
  6  7  1  0
  7  8  2  0
  8  9  1  0
  9 10  2  0
 10 11  1  0
 11 12  2  0
 12 13  1  0
 13 14  2  0
 14  5  1  0
 13  8  1  0
M  END
>  <HIPPO ID>  (2) 
6276

>  <alias>  (2) 
None

>  <ref_mols>  (2) 
c0839a,c1299a

>  <submitter_email>  (2) 
None

>  <ref_pdb>  (2) 
c0300a

>  <inchikey>  (2) 
MMXSHBZOILNLPJ-UHFFFAOYSA-N

>  <generation_date>  (2) 
None

>  <original ID>  (2) 
MMXSHBZOILNLPJ-UHFFFAOYSA-N

>  <tags>  (2) 
['Syndirella base']

>  <exports>  (2) 
['/opt/xchem-fragalysis-2/maxwin/CHIKV_HIPPO/hippo_prod/CHIKV_prod11_recipes/Recipe_1G8PPKY_poses.sdf', '/opt/xchem-fragalysis-2/maxwin/CHIKV_HIPPO/web/web_resources/pose_sdfs/modal_c1473_poses.sdf']

>  <method>  (2) 
None

>  <submitter_name>  (2) 
None

>  <original SMILES>  (2) 
CC(C)(C)c1cnc2ccccc2n1

>  <ref_url>  (2) 
None

$$$$
DGASNXVGKHJXGC-UHFFFAOYSA-N
     RDKit          3D

 18 20  0  0  0  0  0  0  0  0999 V2000
   14.7841    9.7548    9.7323 C   0  0  0  0  0  0  0  0  0  0  0  0
   14.6592   10.3981   11.0202 N   0  0  0  0  0  0  0  0  0  0  0  0
   14.5044   11.7444   11.2343 C   0  0  0  0  0  0  0  0  0  0  0  0
   14.0753   12.6131   10.3082 N   0  0  0  0  0  0  0  0  0  0  0  0
   14.7656   12.0878   12.4576 N   0  0  0  0  0  0  0  0  0  0  0  0
   14.9443   10.9101   13.1132 C   0  0  0  0  0  0  0  0  0  0  0  0
   15.2667   10.7414   14.4568 C   0  0  0  0  0  0  0  0  0  0  0  0
   15.5118    9.4498   14.8943 C   0  0  0  0  0  0  0  0  0  0  0  0
   15.3512    8.3589   14.0533 C   0  0  0  0  0  0  0  0  0  0  0  0
   14.9109    8.4799   12.7306 C   0  0  0  0  0  0  0  0  0  0  0  0
   14.6766    7.3573   11.9523 N   0  0  0  0  0  0  0  0  0  0  0  0
   14.2493    6.1058   12.5867 C   0  0  0  0  0  0  0  0  0  0  0  0
   12.7939    6.0142   12.9477 C   0  0  0  0  0  0  0  0  0  0  0  0
   11.8175    5.3080   12.2752 C   0  0  0  0  0  0  0  0  0  0  0  0
   10.5408    5.4154   12.8926 C   0  0  0  0  0  0  0  0  0  0  0  0
   10.5781    6.2007   14.0212 C   0  0  0  0  0  0  0  0  0  0  0  0
   12.1548    6.7775   14.3449 S   0  0  0  0  0  0  0  0  0  0  0  0
   14.8138    9.8077   12.2624 C   0  0  0  0  0  0  0  0  0  0  0  0
  1  2  1  0
  2  3  1  0
  3  4  1  0
  3  5  2  0
  5  6  1  0
  6  7  2  0
  7  8  1  0
  8  9  2  0
  9 10  1  0
 10 11  1  0
 11 12  1  0
 12 13  1  0
 13 14  2  0
 14 15  1  0
 15 16  2  0
 16 17  1  0
 10 18  2  0
 18  2  1  0
 18  6  1  0
 17 13  1  0
M  END
>  <HIPPO ID>  (3) 
6278

>  <alias>  (3) 
None

>  <ref_mols>  (3) 
c0892a,c1203a

>  <submitter_email>  (3) 
None

>  <ref_pdb>  (3) 
c1454a

>  <inchikey>  (3) 
DGASNXVGKHJXGC-UHFFFAOYSA-N

>  <generation_date>  (3) 
None

>  <original ID>  (3) 
DGASNXVGKHJXGC-UHFFFAOYSA-N

>  <tags>  (3) 
['Syndirella base']

>  <exports>  (3) 
['/opt/xchem-fragalysis-2/maxwin/CHIKV_HIPPO/hippo_prod/CHIKV_prod11_recipes/Recipe_1G8PPKY_poses.sdf', '/opt/xchem-fragalysis-2/maxwin/CHIKV_HIPPO/web/web_resources/pose_sdfs/modal_c104_poses.sdf']

>  <method>  (3) 
None

>  <submitter_name>  (3) 
None

>  <original SMILES>  (3) 
Cn1c(N)nc2cccc(NCc3cccs3)c21

>  <ref_url>  (3) 
None

$$$$
WXVLITNXXROEMR-UHFFFAOYSA-N
     RDKit          3D

 22 24  0  0  0  0  0  0  0  0999 V2000
   13.7778    8.8513    8.9663 C   0  0  0  0  0  0  0  0  0  0  0  0
   14.6194    8.2823   10.0818 C   0  0  0  0  0  0  0  0  0  0  0  0
   14.4339    6.8461   10.3992 C   0  0  0  0  0  0  0  0  0  0  0  0
   15.2393    6.1041   11.1185 N   0  0  0  0  0  0  0  0  0  0  0  0
   14.6572    4.8692   11.0724 C   0  0  0  0  0  0  0  0  0  0  0  0
   15.1902    3.8184   11.7929 N   0  0  0  0  0  0  0  0  0  0  0  0
   16.4342    3.9629   12.3719 C   0  0  0  0  0  0  0  0  0  0  0  0
   17.3439    4.6301   11.8784 O   0  0  0  0  0  0  0  0  0  0  0  0
   16.7302    3.3434   13.6835 C   0  0  0  0  0  0  0  0  0  0  0  0
   17.7780    3.8876   14.4250 C   0  0  0  0  0  0  0  0  0  0  0  0
   18.0524    3.3451   15.6617 C   0  0  0  0  0  0  0  0  0  0  0  0
   17.3807    2.3053   16.1913 N   0  0  0  0  0  0  0  0  0  0  0  0
   16.3935    1.7605   15.4742 C   0  0  0  0  0  0  0  0  0  0  0  0
   15.7662    0.6009   15.8912 N   0  0  0  0  0  0  0  0  0  0  0  0
   15.8909   -0.0425   17.1901 C   0  0  0  0  0  0  0  0  0  0  0  0
   17.2639   -0.5864   17.5667 C   0  0  0  0  0  0  0  0  0  0  0  0
   17.1248   -0.6913   19.0584 C   0  0  0  0  0  0  0  0  0  0  0  0
   16.1028    0.0478   19.5128 C   0  0  0  0  0  0  0  0  0  0  0  0
   15.3977    0.7588   18.3951 C   0  0  0  0  0  0  0  0  0  0  0  0
   16.0240    2.2818   14.2271 C   0  0  0  0  0  0  0  0  0  0  0  0
   13.5001    4.8352   10.3995 N   0  0  0  0  0  0  0  0  0  0  0  0
   13.3571    6.1548    9.9279 O   0  0  0  0  0  0  0  0  0  0  0  0
  1  2  1  0
  2  3  1  0
  3  4  2  0
  4  5  1  0
  5  6  1  0
  6  7  1  0
  7  8  2  0
  7  9  1  0
  9 10  2  0
 10 11  1  0
 11 12  2  0
 12 13  1  0
 13 14  1  0
 14 15  1  0
 15 16  1  0
 16 17  1  0
 17 18  2  0
 18 19  1  0
 13 20  2  0
  5 21  2  0
 21 22  1  0
 22  3  1  0
 20  9  1  0
 19 15  1  0
M  END
>  <HIPPO ID>  (4) 
6297

>  <alias>  (4) 
None

>  <ref_mols>  (4) 
c0316a,c0441a

>  <submitter_email>  (4) 
None

>  <ref_pdb>  (4) 
c0300a

>  <inchikey>  (4) 
WXVLITNXXROEMR-UHFFFAOYSA-N

>  <generation_date>  (4) 
None

>  <original ID>  (4) 
WXVLITNXXROEMR-UHFFFAOYSA-N

>  <tags>  (4) 
['Syndirella base']

>  <exports>  (4) 
['/opt/xchem-fragalysis-2/maxwin/CHIKV_HIPPO/hippo_prod/CHIKV_prod11_recipes/Recipe_1G8PPKY_poses.sdf', '/opt/xchem-fragalysis-2/maxwin/CHIKV_HIPPO/web/web_resources/pose_sdfs/modal_c93_poses.sdf']

>  <method>  (4) 
None

>  <submitter_name>  (4) 
None

>  <original SMILES>  (4) 
CCc1nc(NC(=O)c2ccnc(NC3CC=CC3)c2)no1

>  <ref_url>  (4) 
None

$$$$
VKQOZCFNDXYBME-SSDOTTSWSA-N
     RDKit          3D

 21 22  0  0  0  0  0  0  0  0999 V2000
   14.2672   12.8676   12.0661 N   0  0  0  0  0  0  0  0  0  0  0  0
   14.5721   11.6721   11.4845 C   0  0  0  0  0  0  0  0  0  0  0  0
   14.6844   11.5892   10.2675 O   0  0  0  0  0  0  0  0  0  0  0  0
   14.7466   10.4678   12.3548 C   0  0  0  0  0  0  0  0  0  0  0  0
   14.7939    9.2186   11.7309 C   0  0  0  0  0  0  0  0  0  0  0  0
   14.8408    8.0207   12.4691 C   0  0  0  0  0  0  0  0  0  0  0  0
   14.7880    6.5846   11.5225 Cl  0  0  0  0  0  0  0  0  0  0  0  0
   14.8957    8.0302   13.8677 C   0  0  0  0  0  0  0  0  0  0  0  0
   14.8914    6.7423   14.6441 C   0  0  0  0  0  0  0  0  0  0  0  0
   14.0693    6.5391   15.5287 O   0  0  0  0  0  0  0  0  0  0  0  0
   15.8262    5.8094   14.2465 N   0  0  0  0  0  0  0  0  0  0  0  0
   15.7226    4.3712   14.5524 C   0  0  2  0  0  0  0  0  0  0  0  0
   17.0613    3.8316   15.0461 C   0  0  0  0  0  0  0  0  0  0  0  0
   18.1586    3.9103   13.9850 C   0  0  0  0  0  0  0  0  0  0  0  0
   17.7051    4.0077   12.5391 C   0  0  0  0  0  0  0  0  0  0  0  0
   18.4742    4.3636   11.6445 O   0  0  0  0  0  0  0  0  0  0  0  0
   16.3902    3.7858   12.2638 N   0  0  0  0  0  0  0  0  0  0  0  0
   15.3777    3.5735   13.2835 C   0  0  0  0  0  0  0  0  0  0  0  0
   14.8894    9.2909   14.4872 C   0  0  0  0  0  0  0  0  0  0  0  0
   14.9979    9.4814   16.1912 Cl  0  0  0  0  0  0  0  0  0  0  0  0
   14.8153   10.4943   13.7418 C   0  0  0  0  0  0  0  0  0  0  0  0
  1  2  1  0
  2  3  2  0
  2  4  1  0
  4  5  2  0
  5  6  1  0
  6  7  1  0
  6  8  2  0
  8  9  1  0
  9 10  2  0
  9 11  1  0
 12 11  1  6
 12 13  1  0
 13 14  1  0
 14 15  1  0
 15 16  2  0
 15 17  1  0
 17 18  1  0
  8 19  1  0
 19 20  1  0
 19 21  2  0
 21  4  1  0
 18 12  1  0
M  END
>  <HIPPO ID>  (5) 
6309

>  <alias>  (5) 
None

>  <ref_mols>  (5) 
c0300a,c1371a

>  <submitter_email>  (5) 
None

>  <ref_pdb>  (5) 
c0300a

>  <inchikey>  (5) 
VKQOZCFNDXYBME-SSDOTTSWSA-N

>  <generation_date>  (5) 
None

>  <original ID>  (5) 
VKQOZCFNDXYBME-SSDOTTSWSA-N

>  <tags>  (5) 
[]

>  <exports>  (5) 
nan

>  <method>  (5) 
None

>  <submitter_name>  (5) 
None

>  <original SMILES>  (5) 
NC(=O)c1cc(Cl)c(C(=O)N[C@@H]2CCC(=O)NC2)c(Cl)c1

>  <ref_url>  (5) 
None

$$$$
BUBZUSDTUSBYSZ-MRXNPFEDSA-N
     RDKit          3D

 22 24  0  0  0  0  0  0  0  0999 V2000
   20.3024   14.0637   10.5765 C   0  0  0  0  0  0  0  0  0  0  0  0
   19.7055   12.7735   11.0361 C   0  0  2  0  0  0  0  0  0  0  0  0
   18.3705   12.7933   11.7284 C   0  0  0  0  0  0  0  0  0  0  0  0
   18.2176   13.4959   12.7187 O   0  0  0  0  0  0  0  0  0  0  0  0
   17.3974   11.9828   11.1594 N   0  0  0  0  0  0  0  0  0  0  0  0
   16.2415   11.5872   11.8453 C   0  0  0  0  0  0  0  0  0  0  0  0
   15.5939   12.3795   12.7962 C   0  0  0  0  0  0  0  0  0  0  0  0
   14.6533   11.8111   13.6471 C   0  0  0  0  0  0  0  0  0  0  0  0
   14.4042   10.4441   13.5683 C   0  0  0  0  0  0  0  0  0  0  0  0
   15.0154    9.6718   12.5705 C   0  0  0  0  0  0  0  0  0  0  0  0
   14.8842    8.1982   12.4943 C   0  0  0  0  0  0  0  0  0  0  0  0
   15.0218    7.6076   11.4305 O   0  0  0  0  0  0  0  0  0  0  0  0
   14.6758    7.5722   13.6978 N   0  0  0  0  0  0  0  0  0  0  0  0
   14.3146    6.1803   13.7664 C   0  0  0  0  0  0  0  0  0  0  0  0
   12.8321    6.0607   13.6076 C   0  0  0  0  0  0  0  0  0  0  0  0
   12.1436    5.3984   12.6111 C   0  0  0  0  0  0  0  0  0  0  0  0
   10.7327    5.4762   12.7816 C   0  0  0  0  0  0  0  0  0  0  0  0
   10.3856    6.2090   13.8933 C   0  0  0  0  0  0  0  0  0  0  0  0
   11.7576    6.7918   14.7311 S   0  0  0  0  0  0  0  0  0  0  0  0
   15.8682   10.2661   11.6558 C   0  0  0  0  0  0  0  0  0  0  0  0
   20.7672   11.6986   11.2220 C   0  0  0  0  0  0  0  0  0  0  0  0
   19.8424   11.6453   10.1508 O   0  0  0  0  0  0  0  0  0  0  0  0
  2  1  1  6
  2  3  1  0
  3  4  2  0
  3  5  1  0
  5  6  1  0
  6  7  2  0
  7  8  1  0
  8  9  2  0
  9 10  1  0
 10 11  1  0
 11 12  2  0
 11 13  1  0
 13 14  1  0
 14 15  1  0
 15 16  2  0
 16 17  1  0
 17 18  2  0
 18 19  1  0
 10 20  2  0
  2 21  1  0
 21 22  1  0
 22  2  1  0
 20  6  1  0
 19 15  1  0
M  END
>  <HIPPO ID>  (6) 
15538

>  <alias>  (6) 
None

>  <ref_mols>  (6) 
c0692a,c0892a

>  <submitter_email>  (6) 
None

>  <ref_pdb>  (6) 
c0270a

>  <inchikey>  (6) 
BUBZUSDTUSBYSZ-MRXNPFEDSA-N

>  <generation_date>  (6) 
None

>  <original ID>  (6) 
BUBZUSDTUSBYSZ-MRXNPFEDSA-N

>  <tags>  (6) 
[]

>  <exports>  (6) 
nan

>  <method>  (6) 
None

>  <submitter_name>  (6) 
None

>  <original SMILES>  (6) 
C[C@]1(C(=O)Nc2cccc(C(=O)NCc3cccs3)c2)CO1

>  <ref_url>  (6) 
None

$$$$
BUBZUSDTUSBYSZ-INIZCTEOSA-N
     RDKit          3D

 22 24  0  0  0  0  0  0  0  0999 V2000
   20.5364   13.1881   12.8420 C   0  0  0  0  0  0  0  0  0  0  0  0
   19.7204   12.9435   11.6225 C   0  0  1  0  0  0  0  0  0  0  0  0
   18.2305   13.1545   11.6804 C   0  0  0  0  0  0  0  0  0  0  0  0
   17.7964   14.1878   12.1721 O   0  0  0  0  0  0  0  0  0  0  0  0
   17.4586   12.0945   11.2388 N   0  0  0  0  0  0  0  0  0  0  0  0
   16.2552   11.6907   11.8425 C   0  0  0  0  0  0  0  0  0  0  0  0
   15.5056   12.4836   12.7140 C   0  0  0  0  0  0  0  0  0  0  0  0
   14.5445   11.8977   13.5316 C   0  0  0  0  0  0  0  0  0  0  0  0
   14.3582   10.5189   13.4885 C   0  0  0  0  0  0  0  0  0  0  0  0
   15.0482    9.7428   12.5496 C   0  0  0  0  0  0  0  0  0  0  0  0
   14.9407    8.2651   12.4871 C   0  0  0  0  0  0  0  0  0  0  0  0
   15.1330    7.6624   11.4387 O   0  0  0  0  0  0  0  0  0  0  0  0
   14.6862    7.6507   13.6883 N   0  0  0  0  0  0  0  0  0  0  0  0
   14.3514    6.2516   13.7642 C   0  0  0  0  0  0  0  0  0  0  0  0
   12.8714    6.1020   13.6057 C   0  0  0  0  0  0  0  0  0  0  0  0
   12.1949    5.4260   12.6100 C   0  0  0  0  0  0  0  0  0  0  0  0
   10.7826    5.4758   12.7820 C   0  0  0  0  0  0  0  0  0  0  0  0
   10.4224    6.2006   13.8948 C   0  0  0  0  0  0  0  0  0  0  0  0
   11.7837    6.8077   14.7329 S   0  0  0  0  0  0  0  0  0  0  0  0
   15.9463   10.3452   11.6834 C   0  0  0  0  0  0  0  0  0  0  0  0
   20.5676   13.0930   10.3995 C   0  0  0  0  0  0  0  0  0  0  0  0
   20.0899   11.8127   10.7996 O   0  0  0  0  0  0  0  0  0  0  0  0
  2  1  1  1
  2  3  1  0
  3  4  2  0
  3  5  1  0
  5  6  1  0
  6  7  2  0
  7  8  1  0
  8  9  2  0
  9 10  1  0
 10 11  1  0
 11 12  2  0
 11 13  1  0
 13 14  1  0
 14 15  1  0
 15 16  2  0
 16 17  1  0
 17 18  2  0
 18 19  1  0
 10 20  2  0
  2 21  1  0
 21 22  1  0
 22  2  1  0
 20  6  1  0
 19 15  1  0
M  END
>  <HIPPO ID>  (7) 
15539

>  <alias>  (7) 
None

>  <ref_mols>  (7) 
c0692a,c0892a

>  <submitter_email>  (7) 
None

>  <ref_pdb>  (7) 
c0270a

>  <inchikey>  (7) 
BUBZUSDTUSBYSZ-INIZCTEOSA-N

>  <generation_date>  (7) 
None

>  <original ID>  (7) 
BUBZUSDTUSBYSZ-INIZCTEOSA-N

>  <tags>  (7) 
[]

>  <exports>  (7) 
nan

>  <method>  (7) 
None

>  <submitter_name>  (7) 
None

>  <original SMILES>  (7) 
C[C@@]1(C(=O)Nc2cccc(C(=O)NCc3cccs3)c2)CO1

>  <ref_url>  (7) 
None

$$$$
CQPQOENVXXFLSV-UHFFFAOYSA-N
     RDKit          3D

 22 23  0  0  0  0  0  0  0  0999 V2000
   20.0918   11.4927   10.6426 C   0  0  0  0  0  0  0  0  0  0  0  0
   18.7085   11.7919   10.4656 O   0  0  0  0  0  0  0  0  0  0  0  0
   17.9088   10.6337   10.4658 C   0  0  0  0  0  0  0  0  0  0  0  0
   16.6982   10.2934    9.5066 C   0  0  0  0  0  0  0  0  0  0  0  0
   16.6407    9.3029    8.7769 O   0  0  0  0  0  0  0  0  0  0  0  0
   15.5120   11.0050    9.5579 N   0  0  0  0  0  0  0  0  0  0  0  0
   14.9159   10.9163   10.8092 C   0  0  0  0  0  0  0  0  0  0  0  0
   14.6904   12.0500   11.5643 C   0  0  0  0  0  0  0  0  0  0  0  0
   14.5561   11.8953   12.9338 C   0  0  0  0  0  0  0  0  0  0  0  0
   14.7084   10.6250   13.5112 C   0  0  0  0  0  0  0  0  0  0  0  0
   14.7963   10.5736   15.2195 Cl  0  0  0  0  0  0  0  0  0  0  0  0
   14.8605    9.4882   12.7108 C   0  0  0  0  0  0  0  0  0  0  0  0
   15.0510    8.0797   13.1061 C   0  0  0  0  0  0  0  0  0  0  0  0
   15.5780    7.2908   12.3249 O   0  0  0  0  0  0  0  0  0  0  0  0
   14.5473    7.7058   14.3171 N   0  0  0  0  0  0  0  0  0  0  0  0
   14.1943    6.3266   14.5376 C   0  0  0  0  0  0  0  0  0  0  0  0
   12.8023    6.1327   14.0205 C   0  0  0  0  0  0  0  0  0  0  0  0
   12.3950    5.4424   12.8962 C   0  0  0  0  0  0  0  0  0  0  0  0
   10.9800    5.4612   12.7338 C   0  0  0  0  0  0  0  0  0  0  0  0
   10.3554    6.1823   13.7253 C   0  0  0  0  0  0  0  0  0  0  0  0
   11.4697    6.8436   14.8381 S   0  0  0  0  0  0  0  0  0  0  0  0
   14.8693    9.6417   11.3447 C   0  0  0  0  0  0  0  0  0  0  0  0
  1  2  1  0
  2  3  1  0
  3  4  1  0
  4  5  2  0
  4  6  1  0
  6  7  1  0
  7  8  2  0
  8  9  1  0
  9 10  2  0
 10 11  1  0
 10 12  1  0
 12 13  1  0
 13 14  2  0
 13 15  1  0
 15 16  1  0
 16 17  1  0
 17 18  2  0
 18 19  1  0
 19 20  2  0
 20 21  1  0
 12 22  2  0
 22  7  1  0
 21 17  1  0
M  END
>  <HIPPO ID>  (8) 
15550

>  <alias>  (8) 
None

>  <ref_mols>  (8) 
c0692a,c0892a

>  <submitter_email>  (8) 
None

>  <ref_pdb>  (8) 
c0270a

>  <inchikey>  (8) 
CQPQOENVXXFLSV-UHFFFAOYSA-N

>  <generation_date>  (8) 
None

>  <original ID>  (8) 
CQPQOENVXXFLSV-UHFFFAOYSA-N

>  <tags>  (8) 
[]

>  <exports>  (8) 
['/opt/xchem-fragalysis-2/maxwin/CHIKV_HIPPO/hippo_prod/CHIKV_prod11_recipes/Recipe_1G8PPKY_poses.sdf']

>  <method>  (8) 
None

>  <submitter_name>  (8) 
None

>  <original SMILES>  (8) 
COCC(=O)Nc1ccc(Cl)c(C(=O)NCc2cccs2)c1

>  <ref_url>  (8) 
None

$$$$
DDXBMKGDJFSMBK-LBPRGKRZSA-N
     RDKit          3D

 23 24  0  0  0  0  0  0  0  0999 V2000
   22.2766   11.1263   12.1363 C   0  0  0  0  0  0  0  0  0  0  0  0
   21.6228   10.8457   10.7870 C   0  0  0  0  0  0  0  0  0  0  0  0
   20.2131   11.0059   10.7264 O   0  0  0  0  0  0  0  0  0  0  0  0
   19.7681   12.2469   11.2150 C   0  0  1  0  0  0  0  0  0  0  0  0
   20.5160   13.4649   10.7078 C   0  0  0  0  0  0  0  0  0  0  0  0
   18.2400   12.3817   11.1629 C   0  0  0  0  0  0  0  0  0  0  0  0
   17.7235   13.3434   11.7333 O   0  0  0  0  0  0  0  0  0  0  0  0
   17.5246   11.3346   10.5972 N   0  0  0  0  0  0  0  0  0  0  0  0
   16.2327   11.0289   11.0630 C   0  0  0  0  0  0  0  0  0  0  0  0
   15.3961   11.9828   11.6598 C   0  0  0  0  0  0  0  0  0  0  0  0
   14.4718   11.6030   12.6123 C   0  0  0  0  0  0  0  0  0  0  0  0
   14.3872   10.2626   12.9418 C   0  0  0  0  0  0  0  0  0  0  0  0
   15.0712    9.3035   12.1766 C   0  0  0  0  0  0  0  0  0  0  0  0
   14.9751    7.8548   12.4260 C   0  0  0  0  0  0  0  0  0  0  0  0
   15.2001    7.0593   11.5209 O   0  0  0  0  0  0  0  0  0  0  0  0
   14.6823    7.4899   13.7155 N   0  0  0  0  0  0  0  0  0  0  0  0
   14.2701    6.1446   14.0171 C   0  0  0  0  0  0  0  0  0  0  0  0
   12.8022    6.0421   13.7521 C   0  0  0  0  0  0  0  0  0  0  0  0
   12.1743    5.3800   12.7162 C   0  0  0  0  0  0  0  0  0  0  0  0
   10.7566    5.4849   12.7863 C   0  0  0  0  0  0  0  0  0  0  0  0
   10.3473    6.2419   13.8603 C   0  0  0  0  0  0  0  0  0  0  0  0
   11.6683    6.8230   14.7772 S   0  0  0  0  0  0  0  0  0  0  0  0
   15.9459    9.6873   11.1739 C   0  0  0  0  0  0  0  0  0  0  0  0
  1  2  1  0
  2  3  1  0
  3  4  1  0
  4  5  1  6
  4  6  1  0
  6  7  2  0
  6  8  1  0
  8  9  1  0
  9 10  2  0
 10 11  1  0
 11 12  2  0
 12 13  1  0
 13 14  1  0
 14 15  2  0
 14 16  1  0
 16 17  1  0
 17 18  1  0
 18 19  2  0
 19 20  1  0
 20 21  2  0
 21 22  1  0
 13 23  2  0
 23  9  1  0
 22 18  1  0
M  END
>  <HIPPO ID>  (9) 
15559

>  <alias>  (9) 
None

>  <ref_mols>  (9) 
c0692a,c0892a

>  <submitter_email>  (9) 
None

>  <ref_pdb>  (9) 
c0270a

>  <inchikey>  (9) 
DDXBMKGDJFSMBK-LBPRGKRZSA-N

>  <generation_date>  (9) 
None

>  <original ID>  (9) 
DDXBMKGDJFSMBK-LBPRGKRZSA-N

>  <tags>  (9) 
[]

>  <exports>  (9) 
nan

>  <method>  (9) 
None

>  <submitter_name>  (9) 
None

>  <original SMILES>  (9) 
CCO[C@@H](C)C(=O)Nc1cccc(C(=O)NCc2cccs2)c1

>  <ref_url>  (9) 
None

$$$$
DDXBMKGDJFSMBK-GFCCVEGCSA-N
     RDKit          3D

 23 24  0  0  0  0  0  0  0  0999 V2000
   16.5383    9.7250    9.3851 C   0  0  0  0  0  0  0  0  0  0  0  0
   17.8186   10.0592   10.1238 C   0  0  0  0  0  0  0  0  0  0  0  0
   17.8011   10.7570   11.3520 O   0  0  0  0  0  0  0  0  0  0  0  0
   17.4696   12.0943   11.1578 C   0  0  2  0  0  0  0  0  0  0  0  0
   18.1619   12.9442   12.2103 C   0  0  0  0  0  0  0  0  0  0  0  0
   15.8831   12.2014   11.0264 C   0  0  0  0  0  0  0  0  0  0  0  0
   15.1806   11.9277   10.0454 O   0  0  0  0  0  0  0  0  0  0  0  0
   15.1301   12.5667   12.0807 N   0  0  0  0  0  0  0  0  0  0  0  0
   14.9853   11.5509   13.0151 C   0  0  0  0  0  0  0  0  0  0  0  0
   15.0862   11.9175   14.3358 C   0  0  0  0  0  0  0  0  0  0  0  0
   15.2121   10.9167   15.2737 C   0  0  0  0  0  0  0  0  0  0  0  0
   15.2259    9.5794   14.8741 C   0  0  0  0  0  0  0  0  0  0  0  0
   15.0476    9.2297   13.5320 C   0  0  0  0  0  0  0  0  0  0  0  0
   15.0263    7.8358   13.0382 C   0  0  0  0  0  0  0  0  0  0  0  0
   15.2323    7.5555   11.8645 O   0  0  0  0  0  0  0  0  0  0  0  0
   14.7073    6.9145   14.0010 N   0  0  0  0  0  0  0  0  0  0  0  0
   14.1833    5.6343   13.6195 C   0  0  0  0  0  0  0  0  0  0  0  0
   12.7009    5.7604   13.4347 C   0  0  0  0  0  0  0  0  0  0  0  0
   11.9444    5.2594   12.3963 C   0  0  0  0  0  0  0  0  0  0  0  0
   10.5559    5.5249   12.5572 C   0  0  0  0  0  0  0  0  0  0  0  0
   10.2929    6.2394   13.7026 C   0  0  0  0  0  0  0  0  0  0  0  0
   11.7157    6.5856   14.5799 S   0  0  0  0  0  0  0  0  0  0  0  0
   14.8825   10.2262   12.6052 C   0  0  0  0  0  0  0  0  0  0  0  0
  1  2  1  0
  2  3  1  0
  3  4  1  0
  4  5  1  1
  4  6  1  0
  6  7  2  0
  6  8  1  0
  8  9  1  0
  9 10  2  0
 10 11  1  0
 11 12  2  0
 12 13  1  0
 13 14  1  0
 14 15  2  0
 14 16  1  0
 16 17  1  0
 17 18  1  0
 18 19  2  0
 19 20  1  0
 20 21  2  0
 21 22  1  0
 13 23  2  0
 23  9  1  0
 22 18  1  0
M  END
>  <HIPPO ID>  (10) 
15560

>  <alias>  (10) 
None

>  <ref_mols>  (10) 
c0692a,c0892a

>  <submitter_email>  (10) 
None

>  <ref_pdb>  (10) 
c0270a

>  <inchikey>  (10) 
DDXBMKGDJFSMBK-GFCCVEGCSA-N

>  <generation_date>  (10) 
None

>  <original ID>  (10) 
DDXBMKGDJFSMBK-GFCCVEGCSA-N

>  <tags>  (10) 
[]

>  <exports>  (10) 
nan

>  <method>  (10) 
None

>  <submitter_name>  (10) 
None

>  <original SMILES>  (10) 
CCO[C@H](C)C(=O)Nc1cccc(C(=O)NCc2cccs2)c1

>  <ref_url>  (10) 
None

$$$$
DRIGAIZENUBOKU-UHFFFAOYSA-N
     RDKit          3D

 23 24  0  0  0  0  0  0  0  0999 V2000
   15.6030   13.3458   11.5531 O   0  0  0  0  0  0  0  0  0  0  0  0
   15.5534   12.1249   11.4600 C   0  0  0  0  0  0  0  0  0  0  0  0
   16.7584   11.3158   11.9102 C   0  0  0  0  0  0  0  0  0  0  0  0
   16.7956    9.9366   11.7823 O   0  0  0  0  0  0  0  0  0  0  0  0
   17.0792    9.4584   10.4836 C   0  0  0  0  0  0  0  0  0  0  0  0
   16.6997    8.1623   10.4920 F   0  0  0  0  0  0  0  0  0  0  0  0
   16.3436   10.0837    9.5600 F   0  0  0  0  0  0  0  0  0  0  0  0
   14.4628   11.5944   10.8770 N   0  0  0  0  0  0  0  0  0  0  0  0
   14.2934   10.2437   10.6788 C   0  0  0  0  0  0  0  0  0  0  0  0
   13.9443    9.7719    9.4152 C   0  0  0  0  0  0  0  0  0  0  0  0
   13.7949    8.4186    9.1683 C   0  0  0  0  0  0  0  0  0  0  0  0
   14.0569    7.5201   10.1873 C   0  0  0  0  0  0  0  0  0  0  0  0
   14.4142    7.9985   11.4545 C   0  0  0  0  0  0  0  0  0  0  0  0
   14.8732    7.0450   12.4551 C   0  0  0  0  0  0  0  0  0  0  0  0
   15.3971    6.0040   12.0821 O   0  0  0  0  0  0  0  0  0  0  0  0
   14.5748    7.3501   13.7673 N   0  0  0  0  0  0  0  0  0  0  0  0
   14.1090    6.2475   14.5649 C   0  0  0  0  0  0  0  0  0  0  0  0
   12.6730    6.0446   14.1706 C   0  0  0  0  0  0  0  0  0  0  0  0
   12.1794    5.2800   13.1305 C   0  0  0  0  0  0  0  0  0  0  0  0
   10.7640    5.3622   13.0193 C   0  0  0  0  0  0  0  0  0  0  0  0
   10.2241    6.2043   13.9643 C   0  0  0  0  0  0  0  0  0  0  0  0
   11.4215    6.9049   14.9641 S   0  0  0  0  0  0  0  0  0  0  0  0
   14.4564    9.3575   11.7338 C   0  0  0  0  0  0  0  0  0  0  0  0
  1  2  2  0
  2  3  1  0
  3  4  1  0
  4  5  1  0
  5  6  1  0
  5  7  1  0
  2  8  1  0
  8  9  1  0
  9 10  2  0
 10 11  1  0
 11 12  2  0
 12 13  1  0
 13 14  1  0
 14 15  2  0
 14 16  1  0
 16 17  1  0
 17 18  1  0
 18 19  2  0
 19 20  1  0
 20 21  2  0
 21 22  1  0
 13 23  2  0
 23  9  1  0
 22 18  1  0
M  END
>  <HIPPO ID>  (11) 
15564

>  <alias>  (11) 
None

>  <ref_mols>  (11) 
c0692a,c0892a

>  <submitter_email>  (11) 
None

>  <ref_pdb>  (11) 
c0270a

>  <inchikey>  (11) 
DRIGAIZENUBOKU-UHFFFAOYSA-N

>  <generation_date>  (11) 
None

>  <original ID>  (11) 
DRIGAIZENUBOKU-UHFFFAOYSA-N

>  <tags>  (11) 
[]

>  <exports>  (11) 
nan

>  <method>  (11) 
None

>  <submitter_name>  (11) 
None

>  <original SMILES>  (11) 
O=C(COC(F)F)Nc1cccc(C(=O)NCc2cccs2)c1

>  <ref_url>  (11) 
None

$$$$
PEKUZFDGOWUCHE-INIZCTEOSA-N
     RDKit          3D

 23 25  0  0  0  0  0  0  0  0999 V2000
   19.3128   13.0061   11.7877 C   0  0  0  0  0  0  0  0  0  0  0  0
   18.0106   12.2981   11.5984 C   0  0  1  0  0  0  0  0  0  0  0  0
   16.7738   12.9198   12.1853 C   0  0  0  0  0  0  0  0  0  0  0  0
   16.5237   14.0981   11.9833 O   0  0  0  0  0  0  0  0  0  0  0  0
   15.9796   12.1211   12.9940 N   0  0  0  0  0  0  0  0  0  0  0  0
   15.3013   11.0867   12.3119 C   0  0  0  0  0  0  0  0  0  0  0  0
   14.7492   11.3369   11.0534 C   0  0  0  0  0  0  0  0  0  0  0  0
   14.5095   10.2702   10.1966 C   0  0  0  0  0  0  0  0  0  0  0  0
   14.6831    8.9616   10.6533 C   0  0  0  0  0  0  0  0  0  0  0  0
   14.0641    7.7153    9.6589 Cl  0  0  0  0  0  0  0  0  0  0  0  0
   15.1338    8.7232   11.9532 C   0  0  0  0  0  0  0  0  0  0  0  0
   15.2595    7.3540   12.4852 C   0  0  0  0  0  0  0  0  0  0  0  0
   15.8606    6.4855   11.8706 O   0  0  0  0  0  0  0  0  0  0  0  0
   14.6279    7.1729   13.6966 N   0  0  0  0  0  0  0  0  0  0  0  0
   14.1439    5.8662   14.0731 C   0  0  0  0  0  0  0  0  0  0  0  0
   12.6748    5.8552   13.7695 C   0  0  0  0  0  0  0  0  0  0  0  0
   12.0255    5.2507   12.7124 C   0  0  0  0  0  0  0  0  0  0  0  0
   10.6156    5.4492   12.7564 C   0  0  0  0  0  0  0  0  0  0  0  0
   10.2351    6.2242   13.8277 C   0  0  0  0  0  0  0  0  0  0  0  0
   11.5739    6.7207   14.7668 S   0  0  0  0  0  0  0  0  0  0  0  0
   15.4360    9.7908   12.7969 C   0  0  0  0  0  0  0  0  0  0  0  0
   17.9957   11.2455   10.4845 C   0  0  0  0  0  0  0  0  0  0  0  0
   18.0565   10.8884   11.8364 O   0  0  0  0  0  0  0  0  0  0  0  0
  2  1  1  6
  2  3  1  0
  3  4  2  0
  3  5  1  0
  5  6  1  0
  6  7  2  0
  7  8  1  0
  8  9  2  0
  9 10  1  0
  9 11  1  0
 11 12  1  0
 12 13  2  0
 12 14  1  0
 14 15  1  0
 15 16  1  0
 16 17  2  0
 17 18  1  0
 18 19  2  0
 19 20  1  0
 11 21  2  0
  2 22  1  0
 22 23  1  0
 23  2  1  0
 21  6  1  0
 20 16  1  0
M  END
>  <HIPPO ID>  (12) 
15592

>  <alias>  (12) 
None

>  <ref_mols>  (12) 
c0692a,c0892a

>  <submitter_email>  (12) 
None

>  <ref_pdb>  (12) 
c0270a

>  <inchikey>  (12) 
PEKUZFDGOWUCHE-INIZCTEOSA-N

>  <generation_date>  (12) 
None

>  <original ID>  (12) 
PEKUZFDGOWUCHE-INIZCTEOSA-N

>  <tags>  (12) 
[]

>  <exports>  (12) 
nan

>  <method>  (12) 
None

>  <submitter_name>  (12) 
None

>  <original SMILES>  (12) 
C[C@@]1(C(=O)Nc2ccc(Cl)c(C(=O)NCc3cccs3)c2)CO1

>  <ref_url>  (12) 
None

$$$$
PEKUZFDGOWUCHE-INIZCTEOSA-N
     RDKit          3D

 23 25  0  0  0  0  0  0  0  0999 V2000
   15.6743    7.2942   11.1285 C   0  0  0  0  0  0  0  0  0  0  0  0
   14.5694    7.7184   10.2162 C   0  0  1  0  0  0  0  0  0  0  0  0
   14.4417    9.1187    9.6044 C   0  0  0  0  0  0  0  0  0  0  0  0
   13.4450    9.4308    8.9581 O   0  0  0  0  0  0  0  0  0  0  0  0
   15.4589   10.0492    9.8299 N   0  0  0  0  0  0  0  0  0  0  0  0
   15.3060   10.7893   11.0261 C   0  0  0  0  0  0  0  0  0  0  0  0
   14.4698   11.8898   11.1367 C   0  0  0  0  0  0  0  0  0  0  0  0
   14.2665   12.4693   12.3873 C   0  0  0  0  0  0  0  0  0  0  0  0
   14.7326   11.8299   13.5357 C   0  0  0  0  0  0  0  0  0  0  0  0
   14.4737   12.5731   15.0513 Cl  0  0  0  0  0  0  0  0  0  0  0  0
   15.4357   10.6433   13.4147 C   0  0  0  0  0  0  0  0  0  0  0  0
   15.4711    9.5311   14.3998 C   0  0  0  0  0  0  0  0  0  0  0  0
   16.4516    8.7996   14.4729 O   0  0  0  0  0  0  0  0  0  0  0  0
   14.2684    9.2386   15.0030 N   0  0  0  0  0  0  0  0  0  0  0  0
   14.0439    7.9809   15.6906 C   0  0  0  0  0  0  0  0  0  0  0  0
   13.0562    7.1601   14.9124 C   0  0  0  0  0  0  0  0  0  0  0  0
   13.3029    6.2007   13.9479 C   0  0  0  0  0  0  0  0  0  0  0  0
   12.1066    5.6414   13.4082 C   0  0  0  0  0  0  0  0  0  0  0  0
   10.9819    6.1702   13.9978 C   0  0  0  0  0  0  0  0  0  0  0  0
   11.3714    7.3221   15.1965 S   0  0  0  0  0  0  0  0  0  0  0  0
   15.8807   10.2612   12.1631 C   0  0  0  0  0  0  0  0  0  0  0  0
   13.7439    6.6074    9.5907 C   0  0  0  0  0  0  0  0  0  0  0  0
   13.3337    7.2271   10.7878 O   0  0  0  0  0  0  0  0  0  0  0  0
  2  1  1  1
  2  3  1  0
  3  4  2  0
  3  5  1  0
  5  6  1  0
  6  7  2  0
  7  8  1  0
  8  9  2  0
  9 10  1  0
  9 11  1  0
 11 12  1  0
 12 13  2  0
 12 14  1  0
 14 15  1  0
 15 16  1  0
 16 17  2  0
 17 18  1  0
 18 19  2  0
 19 20  1  0
 11 21  2  0
  2 22  1  0
 22 23  1  0
 23  2  1  0
 21  6  1  0
 20 16  1  0
M  END
>  <HIPPO ID>  (13) 
15593

>  <alias>  (13) 
None

>  <ref_mols>  (13) 
c0692a,c0892a

>  <submitter_email>  (13) 
None

>  <ref_pdb>  (13) 
c0270a

>  <inchikey>  (13) 
PEKUZFDGOWUCHE-INIZCTEOSA-N

>  <generation_date>  (13) 
None

>  <original ID>  (13) 
PEKUZFDGOWUCHE-INIZCTEOSA-N

>  <tags>  (13) 
[]

>  <exports>  (13) 
nan

>  <method>  (13) 
None

>  <submitter_name>  (13) 
None

>  <original SMILES>  (13) 
C[C@@]1(C(=O)Nc2ccc(Cl)c(C(=O)NCc3cccs3)c2)CO1

>  <ref_url>  (13) 
None

$$$$
OQZJJSOHVLZEPL-INIZCTEOSA-N
     RDKit          3D

 24 25  0  0  0  0  0  0  0  0999 V2000
   15.7574    9.4023    9.3561 C   0  0  0  0  0  0  0  0  0  0  0  0
   16.0777   10.7963    9.8149 C   0  0  0  0  0  0  0  0  0  0  0  0
   17.3593   10.8435   10.6536 C   0  0  0  0  0  0  0  0  0  0  0  0
   17.8817   12.1872   11.1341 C   0  0  2  0  0  0  0  0  0  0  0  0
   19.1308   12.0399   11.7960 O   0  0  0  0  0  0  0  0  0  0  0  0
   20.2805   11.9514   10.9512 C   0  0  0  0  0  0  0  0  0  0  0  0
   16.8540   13.1142   11.8662 C   0  0  0  0  0  0  0  0  0  0  0  0
   17.1792   14.2344   12.2718 O   0  0  0  0  0  0  0  0  0  0  0  0
   15.5032   12.7843   11.9403 N   0  0  0  0  0  0  0  0  0  0  0  0
   15.1657   11.9120   13.0043 C   0  0  0  0  0  0  0  0  0  0  0  0
   15.2729   12.3533   14.3169 C   0  0  0  0  0  0  0  0  0  0  0  0
   15.2180   11.4243   15.3502 C   0  0  0  0  0  0  0  0  0  0  0  0
   15.0773   10.0622   15.0670 C   0  0  0  0  0  0  0  0  0  0  0  0
   14.8995    9.6392   13.7490 C   0  0  0  0  0  0  0  0  0  0  0  0
   14.8360    8.2158   13.3184 C   0  0  0  0  0  0  0  0  0  0  0  0
   15.0083    7.8865   12.1516 O   0  0  0  0  0  0  0  0  0  0  0  0
   14.5588    7.3151   14.3110 N   0  0  0  0  0  0  0  0  0  0  0  0
   14.1720    5.9710   13.9696 C   0  0  0  0  0  0  0  0  0  0  0  0
   12.7060    5.9470   13.6624 C   0  0  0  0  0  0  0  0  0  0  0  0
   12.0845    5.3601   12.5789 C   0  0  0  0  0  0  0  0  0  0  0  0
   10.6685    5.4984   12.6247 C   0  0  0  0  0  0  0  0  0  0  0  0
   10.2521    6.2011   13.7314 C   0  0  0  0  0  0  0  0  0  0  0  0
   11.5624    6.6926   14.7089 S   0  0  0  0  0  0  0  0  0  0  0  0
   14.8565   10.5873   12.7447 C   0  0  0  0  0  0  0  0  0  0  0  0
  1  2  1  0
  2  3  1  0
  4  3  1  1
  4  5  1  0
  5  6  1  0
  4  7  1  0
  7  8  2  0
  7  9  1  0
  9 10  1  0
 10 11  2  0
 11 12  1  0
 12 13  2  0
 13 14  1  0
 14 15  1  0
 15 16  2  0
 15 17  1  0
 17 18  1  0
 18 19  1  0
 19 20  2  0
 20 21  1  0
 21 22  2  0
 22 23  1  0
 14 24  2  0
 24 10  1  0
 23 19  1  0
M  END
>  <HIPPO ID>  (14) 
15598

>  <alias>  (14) 
None

>  <ref_mols>  (14) 
c0692a,c0892a

>  <submitter_email>  (14) 
None

>  <ref_pdb>  (14) 
c0270a

>  <inchikey>  (14) 
OQZJJSOHVLZEPL-INIZCTEOSA-N

>  <generation_date>  (14) 
None

>  <original ID>  (14) 
OQZJJSOHVLZEPL-INIZCTEOSA-N

>  <tags>  (14) 
[]

>  <exports>  (14) 
nan

>  <method>  (14) 
None

>  <submitter_name>  (14) 
None

>  <original SMILES>  (14) 
CCC[C@H](OC)C(=O)Nc1cccc(C(=O)NCc2cccs2)c1

>  <ref_url>  (14) 
None

$$$$
ICBADWZPPAWLRX-INIZCTEOSA-N
     RDKit          3D

 24 25  0  0  0  0  0  0  0  0999 V2000
   19.0041   14.0440   12.8650 C   0  0  0  0  0  0  0  0  0  0  0  0
   18.5058   12.8425   12.1485 C   0  0  0  0  0  0  0  0  0  0  0  0
   19.6419   12.1254   11.7663 O   0  0  0  0  0  0  0  0  0  0  0  0
   19.5383   11.5894   10.4805 C   0  0  1  0  0  0  0  0  0  0  0  0
   20.9167   10.9767   10.1384 C   0  0  0  0  0  0  0  0  0  0  0  0
   21.9555   10.8706   11.2354 C   0  0  0  0  0  0  0  0  0  0  0  0
   18.2260   10.7294   10.2871 C   0  0  0  0  0  0  0  0  0  0  0  0
   18.1904    9.5215   10.3652 O   0  0  0  0  0  0  0  0  0  0  0  0
   16.9940   11.3276   10.0769 N   0  0  0  0  0  0  0  0  0  0  0  0
   15.9208   10.9998   10.9398 C   0  0  0  0  0  0  0  0  0  0  0  0
   15.3142   12.0189   11.6761 C   0  0  0  0  0  0  0  0  0  0  0  0
   14.5331   11.7006   12.7751 C   0  0  0  0  0  0  0  0  0  0  0  0
   14.3969   10.3647   13.1377 C   0  0  0  0  0  0  0  0  0  0  0  0
   14.9171    9.3541   12.3135 C   0  0  0  0  0  0  0  0  0  0  0  0
   14.8043    7.9088   12.5815 C   0  0  0  0  0  0  0  0  0  0  0  0
   14.9129    7.0999   11.6661 O   0  0  0  0  0  0  0  0  0  0  0  0
   14.5968    7.5509   13.8886 N   0  0  0  0  0  0  0  0  0  0  0  0
   14.1948    6.2051   14.2014 C   0  0  0  0  0  0  0  0  0  0  0  0
   12.7386    6.0698   13.8857 C   0  0  0  0  0  0  0  0  0  0  0  0
   12.1631    5.3851   12.8336 C   0  0  0  0  0  0  0  0  0  0  0  0
   10.7425    5.4656   12.8468 C   0  0  0  0  0  0  0  0  0  0  0  0
   10.2797    6.2286   13.8944 C   0  0  0  0  0  0  0  0  0  0  0  0
   11.5538    6.8478   14.8521 S   0  0  0  0  0  0  0  0  0  0  0  0
   15.6023    9.6779   11.1615 C   0  0  0  0  0  0  0  0  0  0  0  0
  1  2  1  0
  2  3  1  0
  3  4  1  0
  4  5  1  1
  5  6  1  0
  4  7  1  0
  7  8  2  0
  7  9  1  0
  9 10  1  0
 10 11  2  0
 11 12  1  0
 12 13  2  0
 13 14  1  0
 14 15  1  0
 15 16  2  0
 15 17  1  0
 17 18  1  0
 18 19  1  0
 19 20  2  0
 20 21  1  0
 21 22  2  0
 22 23  1  0
 14 24  2  0
 24 10  1  0
 23 19  1  0
M  END
>  <HIPPO ID>  (15) 
15640

>  <alias>  (15) 
None

>  <ref_mols>  (15) 
c0692a,c0892a

>  <submitter_email>  (15) 
None

>  <ref_pdb>  (15) 
c0270a

>  <inchikey>  (15) 
ICBADWZPPAWLRX-INIZCTEOSA-N

>  <generation_date>  (15) 
None

>  <original ID>  (15) 
ICBADWZPPAWLRX-INIZCTEOSA-N

>  <tags>  (15) 
[]

>  <exports>  (15) 
nan

>  <method>  (15) 
None

>  <submitter_name>  (15) 
None

>  <original SMILES>  (15) 
CCO[C@@H](CC)C(=O)Nc1cccc(C(=O)NCc2cccs2)c1

>  <ref_url>  (15) 
None

$$$$
GIOAKYONQFDRGA-OAHLLOKOSA-N
     RDKit          3D

 24 26  0  0  0  0  0  0  0  0999 V2000
   20.2444   11.2296   10.6147 C   0  0  0  0  0  0  0  0  0  0  0  0
   20.0828   12.6625   11.0993 C   0  0  0  0  0  0  0  0  0  0  0  0
   20.9480   13.6408   10.3247 C   0  0  0  0  0  0  0  0  0  0  0  0
   20.4360   12.8407   12.5801 C   0  0  0  0  0  0  0  0  0  0  0  0
   19.0344   12.8248   12.9540 O   0  0  0  0  0  0  0  0  0  0  0  0
   18.6444   13.0714   11.5845 C   0  0  2  0  0  0  0  0  0  0  0  0
   17.3777   12.2456   11.1535 C   0  0  0  0  0  0  0  0  0  0  0  0
   17.3716   11.3137   10.3492 O   0  0  0  0  0  0  0  0  0  0  0  0
   16.1225   12.6830   11.6237 N   0  0  0  0  0  0  0  0  0  0  0  0
   15.5924   11.8568   12.6318 C   0  0  0  0  0  0  0  0  0  0  0  0
   15.4477   12.3557   13.9127 C   0  0  0  0  0  0  0  0  0  0  0  0
   15.0649   11.4815   14.9182 C   0  0  0  0  0  0  0  0  0  0  0  0
   14.8538   10.1254   14.6329 C   0  0  0  0  0  0  0  0  0  0  0  0
   14.9886    9.6374   13.3242 C   0  0  0  0  0  0  0  0  0  0  0  0
   14.8821    8.2042   12.9274 C   0  0  0  0  0  0  0  0  0  0  0  0
   14.9768    7.8554   11.7555 O   0  0  0  0  0  0  0  0  0  0  0  0
   14.6853    7.3136   13.9518 N   0  0  0  0  0  0  0  0  0  0  0  0
   14.2613    5.9663   13.6792 C   0  0  0  0  0  0  0  0  0  0  0  0
   12.7716    5.9403   13.5230 C   0  0  0  0  0  0  0  0  0  0  0  0
   12.0480    5.3413   12.5117 C   0  0  0  0  0  0  0  0  0  0  0  0
   10.6432    5.4858   12.6881 C   0  0  0  0  0  0  0  0  0  0  0  0
   10.3344    6.2040   13.8200 C   0  0  0  0  0  0  0  0  0  0  0  0
   11.7338    6.6929   14.6693 S   0  0  0  0  0  0  0  0  0  0  0  0
   15.3043   10.5291   12.3175 C   0  0  0  0  0  0  0  0  0  0  0  0
  1  2  1  0
  2  3  1  0
  2  4  1  0
  4  5  1  0
  5  6  1  0
  6  7  1  6
  7  8  2  0
  7  9  1  0
  9 10  1  0
 10 11  2  0
 11 12  1  0
 12 13  2  0
 13 14  1  0
 14 15  1  0
 15 16  2  0
 15 17  1  0
 17 18  1  0
 18 19  1  0
 19 20  2  0
 20 21  1  0
 21 22  2  0
 22 23  1  0
 14 24  2  0
  6  2  1  0
 24 10  1  0
 23 19  1  0
M  END
>  <HIPPO ID>  (16) 
15695

>  <alias>  (16) 
None

>  <ref_mols>  (16) 
c0692a,c0892a

>  <submitter_email>  (16) 
None

>  <ref_pdb>  (16) 
c0270a

>  <inchikey>  (16) 
GIOAKYONQFDRGA-OAHLLOKOSA-N

>  <generation_date>  (16) 
None

>  <original ID>  (16) 
GIOAKYONQFDRGA-OAHLLOKOSA-N

>  <tags>  (16) 
[]

>  <exports>  (16) 
nan

>  <method>  (16) 
None

>  <submitter_name>  (16) 
None

>  <original SMILES>  (16) 
CC1(C)CO[C@@H]1C(=O)Nc1cccc(C(=O)NCc2cccs2)c1

>  <ref_url>  (16) 
None

$$$$
GIOAKYONQFDRGA-HNNXBMFYSA-N
     RDKit          3D

 24 26  0  0  0  0  0  0  0  0999 V2000
   20.7040   13.7985   10.0817 C   0  0  0  0  0  0  0  0  0  0  0  0
   20.6393   12.4462   10.7538 C   0  0  0  0  0  0  0  0  0  0  0  0
   21.5709   11.3557   10.2443 C   0  0  0  0  0  0  0  0  0  0  0  0
   20.9063   12.7661   12.2493 C   0  0  0  0  0  0  0  0  0  0  0  0
   19.4578   12.7817   12.4638 O   0  0  0  0  0  0  0  0  0  0  0  0
   19.3474   11.8567   11.3175 C   0  0  1  0  0  0  0  0  0  0  0  0
   17.9292   11.6316   10.8164 C   0  0  0  0  0  0  0  0  0  0  0  0
   17.6479   10.6679   10.1044 O   0  0  0  0  0  0  0  0  0  0  0  0
   16.9673   12.4208   11.4501 N   0  0  0  0  0  0  0  0  0  0  0  0
   15.8768   11.8244   12.1173 C   0  0  0  0  0  0  0  0  0  0  0  0
   15.3397   12.5182   13.1992 C   0  0  0  0  0  0  0  0  0  0  0  0
   14.5866   11.8310   14.1419 C   0  0  0  0  0  0  0  0  0  0  0  0
   14.3963   10.4540   14.0101 C   0  0  0  0  0  0  0  0  0  0  0  0
   14.8741    9.7810   12.8813 C   0  0  0  0  0  0  0  0  0  0  0  0
   14.8000    8.3057   12.6967 C   0  0  0  0  0  0  0  0  0  0  0  0
   14.8871    7.7923   11.5880 O   0  0  0  0  0  0  0  0  0  0  0  0
   14.6709    7.5740   13.8522 N   0  0  0  0  0  0  0  0  0  0  0  0
   14.3165    6.1790   13.8035 C   0  0  0  0  0  0  0  0  0  0  0  0
   12.8343    6.0563   13.6316 C   0  0  0  0  0  0  0  0  0  0  0  0
   12.1576    5.4008   12.6223 C   0  0  0  0  0  0  0  0  0  0  0  0
   10.7446    5.4727   12.7785 C   0  0  0  0  0  0  0  0  0  0  0  0
   10.3838    6.1946   13.8928 C   0  0  0  0  0  0  0  0  0  0  0  0
   11.7449    6.7739   14.7501 S   0  0  0  0  0  0  0  0  0  0  0  0
   15.5297   10.4958   11.8959 C   0  0  0  0  0  0  0  0  0  0  0  0
  1  2  1  0
  2  3  1  0
  2  4  1  0
  4  5  1  0
  5  6  1  0
  6  7  1  6
  7  8  2  0
  7  9  1  0
  9 10  1  0
 10 11  2  0
 11 12  1  0
 12 13  2  0
 13 14  1  0
 14 15  1  0
 15 16  2  0
 15 17  1  0
 17 18  1  0
 18 19  1  0
 19 20  2  0
 20 21  1  0
 21 22  2  0
 22 23  1  0
 14 24  2  0
  6  2  1  0
 24 10  1  0
 23 19  1  0
M  END
>  <HIPPO ID>  (17) 
15696

>  <alias>  (17) 
None

>  <ref_mols>  (17) 
c0692a,c0892a

>  <submitter_email>  (17) 
None

>  <ref_pdb>  (17) 
c0270a

>  <inchikey>  (17) 
GIOAKYONQFDRGA-HNNXBMFYSA-N

>  <generation_date>  (17) 
None

>  <original ID>  (17) 
GIOAKYONQFDRGA-HNNXBMFYSA-N

>  <tags>  (17) 
[]

>  <exports>  (17) 
nan

>  <method>  (17) 
None

>  <submitter_name>  (17) 
None

>  <original SMILES>  (17) 
CC1(C)CO[C@H]1C(=O)Nc1cccc(C(=O)NCc2cccs2)c1

>  <ref_url>  (17) 
None

$$$$
QFRFKNFADMPDOZ-LLVKDONJSA-N
     RDKit          3D

 24 25  0  0  0  0  0  0  0  0999 V2000
   19.0147   14.3499   12.9897 C   0  0  0  0  0  0  0  0  0  0  0  0
   20.1002   13.4950   12.3876 C   0  0  0  0  0  0  0  0  0  0  0  0
   19.5587   12.8387   11.2567 O   0  0  0  0  0  0  0  0  0  0  0  0
   20.2128   11.6290   11.0010 C   0  0  2  0  0  0  0  0  0  0  0  0
   21.6824   11.8392   10.6019 C   0  0  0  0  0  0  0  0  0  0  0  0
   19.4210   10.7642   10.0486 C   0  0  0  0  0  0  0  0  0  0  0  0
   20.1245   10.1108    9.2751 O   0  0  0  0  0  0  0  0  0  0  0  0
   18.0933   10.4668   10.0222 N   0  0  0  0  0  0  0  0  0  0  0  0
   16.9889   10.6908   10.8306 C   0  0  0  0  0  0  0  0  0  0  0  0
   16.7496   11.8283   11.5744 C   0  0  0  0  0  0  0  0  0  0  0  0
   15.7581   11.8307   12.5473 C   0  0  0  0  0  0  0  0  0  0  0  0
   15.0975   10.6425   12.8532 C   0  0  0  0  0  0  0  0  0  0  0  0
   14.2233   10.6496   14.3264 Cl  0  0  0  0  0  0  0  0  0  0  0  0
   15.2751    9.5151   12.0446 C   0  0  0  0  0  0  0  0  0  0  0  0
   14.8365    8.1230   12.3240 C   0  0  0  0  0  0  0  0  0  0  0  0
   14.8241    7.2949   11.4178 O   0  0  0  0  0  0  0  0  0  0  0  0
   14.5862    7.7917   13.6299 N   0  0  0  0  0  0  0  0  0  0  0  0
   14.2311    6.4467   14.0105 C   0  0  0  0  0  0  0  0  0  0  0  0
   12.7748    6.2294   13.7687 C   0  0  0  0  0  0  0  0  0  0  0  0
   12.1868    5.4985   12.7550 C   0  0  0  0  0  0  0  0  0  0  0  0
   10.7667    5.4898   12.8468 C   0  0  0  0  0  0  0  0  0  0  0  0
   10.3155    6.2276   13.9174 C   0  0  0  0  0  0  0  0  0  0  0  0
   11.6003    6.9209   14.8084 S   0  0  0  0  0  0  0  0  0  0  0  0
   16.1318    9.6043   10.9484 C   0  0  0  0  0  0  0  0  0  0  0  0
  1  2  1  0
  2  3  1  0
  3  4  1  0
  4  5  1  6
  4  6  1  0
  6  7  2  0
  6  8  1  0
  8  9  1  0
  9 10  2  0
 10 11  1  0
 11 12  2  0
 12 13  1  0
 12 14  1  0
 14 15  1  0
 15 16  2  0
 15 17  1  0
 17 18  1  0
 18 19  1  0
 19 20  2  0
 20 21  1  0
 21 22  2  0
 22 23  1  0
 14 24  2  0
 24  9  1  0
 23 19  1  0
M  END
>  <HIPPO ID>  (18) 
15740

>  <alias>  (18) 
None

>  <ref_mols>  (18) 
c0692a,c0892a

>  <submitter_email>  (18) 
None

>  <ref_pdb>  (18) 
c0270a

>  <inchikey>  (18) 
QFRFKNFADMPDOZ-LLVKDONJSA-N

>  <generation_date>  (18) 
None

>  <original ID>  (18) 
QFRFKNFADMPDOZ-LLVKDONJSA-N

>  <tags>  (18) 
[]

>  <exports>  (18) 
nan

>  <method>  (18) 
None

>  <submitter_name>  (18) 
None

>  <original SMILES>  (18) 
CCO[C@H](C)C(=O)Nc1ccc(Cl)c(C(=O)NCc2cccs2)c1

>  <ref_url>  (18) 
None

$$$$
QFRFKNFADMPDOZ-LLVKDONJSA-N
     RDKit          3D

 24 25  0  0  0  0  0  0  0  0999 V2000
   22.2235   11.7702   12.7195 C   0  0  0  0  0  0  0  0  0  0  0  0
   21.8524   10.8490   11.5784 C   0  0  0  0  0  0  0  0  0  0  0  0
   20.4495   10.8318   11.4157 O   0  0  0  0  0  0  0  0  0  0  0  0
   19.9857   11.6806   10.3929 C   0  0  2  0  0  0  0  0  0  0  0  0
   20.7364   13.0248   10.3191 C   0  0  0  0  0  0  0  0  0  0  0  0
   18.4863   11.9449   10.6321 C   0  0  0  0  0  0  0  0  0  0  0  0
   18.1267   13.0336   11.0783 O   0  0  0  0  0  0  0  0  0  0  0  0
   17.6062   10.9152   10.3377 N   0  0  0  0  0  0  0  0  0  0  0  0
   16.3316   10.8147   10.9185 C   0  0  0  0  0  0  0  0  0  0  0  0
   15.7017   11.8651   11.5909 C   0  0  0  0  0  0  0  0  0  0  0  0
   14.8498   11.6001   12.6417 C   0  0  0  0  0  0  0  0  0  0  0  0
   14.6809   10.2803   13.0270 C   0  0  0  0  0  0  0  0  0  0  0  0
   14.1083   10.0683   14.6292 Cl  0  0  0  0  0  0  0  0  0  0  0  0
   15.1030    9.2349   12.1889 C   0  0  0  0  0  0  0  0  0  0  0  0
   14.9412    7.7843   12.4280 C   0  0  0  0  0  0  0  0  0  0  0  0
   15.0848    6.9956   11.4981 O   0  0  0  0  0  0  0  0  0  0  0  0
   14.6831    7.3815   13.7090 N   0  0  0  0  0  0  0  0  0  0  0  0
   14.2318    6.0443   13.9857 C   0  0  0  0  0  0  0  0  0  0  0  0
   12.7610    5.9855   13.7234 C   0  0  0  0  0  0  0  0  0  0  0  0
   12.1132    5.3471   12.6850 C   0  0  0  0  0  0  0  0  0  0  0  0
   10.6989    5.4858   12.7622 C   0  0  0  0  0  0  0  0  0  0  0  0
   10.3128    6.2461   13.8423 C   0  0  0  0  0  0  0  0  0  0  0  0
   11.6511    6.7896   14.7565 S   0  0  0  0  0  0  0  0  0  0  0  0
   15.8630    9.5282   11.0620 C   0  0  0  0  0  0  0  0  0  0  0  0
  1  2  1  0
  2  3  1  0
  3  4  1  0
  4  5  1  1
  4  6  1  0
  6  7  2  0
  6  8  1  0
  8  9  1  0
  9 10  2  0
 10 11  1  0
 11 12  2  0
 12 13  1  0
 12 14  1  0
 14 15  1  0
 15 16  2  0
 15 17  1  0
 17 18  1  0
 18 19  1  0
 19 20  2  0
 20 21  1  0
 21 22  2  0
 22 23  1  0
 14 24  2  0
 24  9  1  0
 23 19  1  0
M  END
>  <HIPPO ID>  (19) 
15741

>  <alias>  (19) 
None

>  <ref_mols>  (19) 
c0692a,c0892a

>  <submitter_email>  (19) 
None

>  <ref_pdb>  (19) 
c0270a

>  <inchikey>  (19) 
QFRFKNFADMPDOZ-LLVKDONJSA-N

>  <generation_date>  (19) 
None

>  <original ID>  (19) 
QFRFKNFADMPDOZ-LLVKDONJSA-N

>  <tags>  (19) 
[]

>  <exports>  (19) 
nan

>  <method>  (19) 
None

>  <submitter_name>  (19) 
None

>  <original SMILES>  (19) 
CCO[C@H](C)C(=O)Nc1ccc(Cl)c(C(=O)NCc2cccs2)c1

>  <ref_url>  (19) 
None

$$$$
LZEPZFXXBBOZIL-ORAYPTAESA-N
     RDKit          3D

 25 28  0  0  0  0  0  0  0  0999 V2000
   16.3761    8.2995   13.8447 O   0  0  0  0  0  0  0  0  0  0  0  0
   15.4189    9.0353   14.0462 C   0  0  0  0  0  0  0  0  0  0  0  0
   14.2969    8.6018   14.7174 N   0  0  0  0  0  0  0  0  0  0  0  0
   14.1546    7.2187   15.1572 C   0  0  0  0  0  0  0  0  0  0  0  0
   12.8455    6.6319   14.6917 C   0  0  0  0  0  0  0  0  0  0  0  0
   12.6250    5.4185   14.0631 C   0  0  0  0  0  0  0  0  0  0  0  0
   11.2700    5.2352   13.6566 C   0  0  0  0  0  0  0  0  0  0  0  0
   10.4704    6.2635   14.0952 C   0  0  0  0  0  0  0  0  0  0  0  0
   11.3542    7.4219   14.9857 S   0  0  0  0  0  0  0  0  0  0  0  0
   15.3209   10.3449   13.3416 C   0  0  0  0  0  0  0  0  0  0  0  0
   14.5203   11.3899   13.7850 C   0  0  0  0  0  0  0  0  0  0  0  0
   14.0665   12.3368   12.8671 C   0  0  0  0  0  0  0  0  0  0  0  0
   14.2954   12.1491   11.5075 C   0  0  0  0  0  0  0  0  0  0  0  0
   15.1320   11.1168   11.1065 C   0  0  0  0  0  0  0  0  0  0  0  0
   15.0593   10.6152    9.7926 N   0  0  0  0  0  0  0  0  0  0  0  0
   13.9954    9.7287    9.6165 C   0  0  0  0  0  0  0  0  0  0  0  0
   12.9894   10.0991    9.0101 O   0  0  0  0  0  0  0  0  0  0  0  0
   14.0620    8.2673   10.2054 C   0  0  2  0  0  0  0  0  0  0  0  0
   15.3403    7.6404    9.7875 C   0  0  0  0  0  0  0  0  0  0  0  0
   15.2092    6.1984   10.3639 C   0  0  0  0  0  0  0  0  0  0  0  0
   14.0478    6.3050   11.2773 C   0  0  2  0  0  0  0  0  0  0  0  0
   12.8198    6.2986   10.4393 C   0  0  0  0  0  0  0  0  0  0  0  0
   12.9916    7.4725    9.6310 O   0  0  0  0  0  0  0  0  0  0  0  0
   14.1657    7.7508   11.6313 C   0  0  0  0  0  0  0  0  0  0  0  0
   15.8015   10.3479   12.0377 C   0  0  0  0  0  0  0  0  0  0  0  0
  1  2  2  0
  2  3  1  0
  3  4  1  0
  4  5  1  0
  5  6  2  0
  6  7  1  0
  7  8  2  0
  8  9  1  0
  2 10  1  0
 10 11  2  0
 11 12  1  0
 12 13  2  0
 13 14  1  0
 14 15  1  0
 15 16  1  0
 16 17  2  0
 18 16  1  1
 18 19  1  0
 19 20  1  0
 21 20  1  6
 21 22  1  0
 22 23  1  0
 21 24  1  0
 14 25  2  0
  9  5  1  0
 25 10  1  0
 23 18  1  0
 24 18  1  0
M  END
>  <HIPPO ID>  (20) 
15838

>  <alias>  (20) 
None

>  <ref_mols>  (20) 
c0692a,c0892a

>  <submitter_email>  (20) 
None

>  <ref_pdb>  (20) 
c0270a

>  <inchikey>  (20) 
LZEPZFXXBBOZIL-ORAYPTAESA-N

>  <generation_date>  (20) 
None

>  <original ID>  (20) 
LZEPZFXXBBOZIL-ORAYPTAESA-N

>  <tags>  (20) 
[]

>  <exports>  (20) 
nan

>  <method>  (20) 
None

>  <submitter_name>  (20) 
None

>  <original SMILES>  (20) 
O=C(NCc1cccs1)c1cccc(NC(=O)[C@]23CC[C@H](CO2)C3)c1

>  <ref_url>  (20) 
None

$$$$
LZEPZFXXBBOZIL-YJYMSZOUSA-N
     RDKit          3D

 25 28  0  0  0  0  0  0  0  0999 V2000
   13.8844   10.1926   15.1417 O   0  0  0  0  0  0  0  0  0  0  0  0
   14.5167    9.5489   14.3275 C   0  0  0  0  0  0  0  0  0  0  0  0
   14.6304    8.1782   14.3571 N   0  0  0  0  0  0  0  0  0  0  0  0
   13.9935    7.3414   15.3538 C   0  0  0  0  0  0  0  0  0  0  0  0
   12.7266    6.7264   14.8260 C   0  0  0  0  0  0  0  0  0  0  0  0
   12.5049    5.4431   14.3666 C   0  0  0  0  0  0  0  0  0  0  0  0
   11.2096    5.2575   13.7957 C   0  0  0  0  0  0  0  0  0  0  0  0
   10.4165    6.3581   14.0046 C   0  0  0  0  0  0  0  0  0  0  0  0
   11.2431    7.5727   14.8691 S   0  0  0  0  0  0  0  0  0  0  0  0
   15.1896   10.2191   13.2012 C   0  0  0  0  0  0  0  0  0  0  0  0
   15.9985   11.3315   13.2930 C   0  0  0  0  0  0  0  0  0  0  0  0
   16.6309   11.7813   12.1287 C   0  0  0  0  0  0  0  0  0  0  0  0
   16.4399   11.1195   10.9015 C   0  0  0  0  0  0  0  0  0  0  0  0
   15.5468   10.0749   10.8050 C   0  0  0  0  0  0  0  0  0  0  0  0
   15.1909    9.4749    9.5878 N   0  0  0  0  0  0  0  0  0  0  0  0
   14.2630    8.4468    9.4539 C   0  0  0  0  0  0  0  0  0  0  0  0
   13.3224    8.6141    8.6781 O   0  0  0  0  0  0  0  0  0  0  0  0
   14.4669    7.1078   10.2859 C   0  0  1  0  0  0  0  0  0  0  0  0
   14.2063    5.7965    9.4871 C   0  0  0  0  0  0  0  0  0  0  0  0
   13.9889    4.6977   10.5028 C   0  0  0  0  0  0  0  0  0  0  0  0
   14.2337    5.4686   11.7582 C   0  0  1  0  0  0  0  0  0  0  0  0
   15.6775    5.9151   11.8339 C   0  0  0  0  0  0  0  0  0  0  0  0
   15.7585    7.0219   10.9352 O   0  0  0  0  0  0  0  0  0  0  0  0
   13.5089    6.7512   11.4199 C   0  0  0  0  0  0  0  0  0  0  0  0
   14.9388    9.6782   11.9610 C   0  0  0  0  0  0  0  0  0  0  0  0
  1  2  2  0
  2  3  1  0
  3  4  1  0
  4  5  1  0
  5  6  2  0
  6  7  1  0
  7  8  2  0
  8  9  1  0
  2 10  1  0
 10 11  2  0
 11 12  1  0
 12 13  2  0
 13 14  1  0
 14 15  1  0
 15 16  1  0
 16 17  2  0
 18 16  1  6
 18 19  1  0
 19 20  1  0
 21 20  1  6
 21 22  1  0
 22 23  1  0
 21 24  1  0
 14 25  2  0
  9  5  1  0
 25 10  1  0
 23 18  1  0
 24 18  1  0
M  END
>  <HIPPO ID>  (21) 
15839

>  <alias>  (21) 
None

>  <ref_mols>  (21) 
c0692a,c0892a

>  <submitter_email>  (21) 
None

>  <ref_pdb>  (21) 
c0270a

>  <inchikey>  (21) 
LZEPZFXXBBOZIL-YJYMSZOUSA-N

>  <generation_date>  (21) 
None

>  <original ID>  (21) 
LZEPZFXXBBOZIL-YJYMSZOUSA-N

>  <tags>  (21) 
[]

>  <exports>  (21) 
nan

>  <method>  (21) 
None

>  <submitter_name>  (21) 
None

>  <original SMILES>  (21) 
O=C(NCc1cccs1)c1cccc(NC(=O)[C@@]23CC[C@@H](CO2)C3)c1

>  <ref_url>  (21) 
None

$$$$
NDWGGWQNXHVILB-UHFFFAOYSA-N
     RDKit          3D

 25 26  0  0  0  0  0  0  0  0999 V2000
   16.3229   12.9523   13.7053 C   0  0  0  0  0  0  0  0  0  0  0  0
   15.4258   13.4480   12.7214 O   0  0  0  0  0  0  0  0  0  0  0  0
   14.1405   12.8398   12.7902 C   0  0  0  0  0  0  0  0  0  0  0  0
   14.3040   11.3815   12.5902 C   0  0  0  0  0  0  0  0  0  0  0  0
   13.9460   10.5482   13.4145 O   0  0  0  0  0  0  0  0  0  0  0  0
   14.9836   11.1007   11.4416 N   0  0  0  0  0  0  0  0  0  0  0  0
   15.2470    9.7550   11.2558 C   0  0  0  0  0  0  0  0  0  0  0  0
   15.7888    9.0007   12.2516 C   0  0  0  0  0  0  0  0  0  0  0  0
   15.6347    7.6422   12.1202 C   0  0  0  0  0  0  0  0  0  0  0  0
   15.7046    6.8074   13.2847 C   0  0  0  0  0  0  0  0  0  0  0  0
   16.1579    5.6839   13.1465 O   0  0  0  0  0  0  0  0  0  0  0  0
   15.0571    7.3136   14.3847 N   0  0  0  0  0  0  0  0  0  0  0  0
   14.3369    6.3734   15.1951 C   0  0  0  0  0  0  0  0  0  0  0  0
   12.9326    6.3402   14.6733 C   0  0  0  0  0  0  0  0  0  0  0  0
   12.4396    5.6961   13.5530 C   0  0  0  0  0  0  0  0  0  0  0  0
   11.0581    5.9444   13.3911 C   0  0  0  0  0  0  0  0  0  0  0  0
   10.0783    5.2591   11.9587 Br  0  0  0  0  0  0  0  0  0  0  0  0
   10.5175    6.7356   14.3689 C   0  0  0  0  0  0  0  0  0  0  0  0
   11.7078    7.2221   15.4864 S   0  0  0  0  0  0  0  0  0  0  0  0
   15.1421    7.0161   10.9842 C   0  0  0  0  0  0  0  0  0  0  0  0
   14.6795    7.7962    9.9707 C   0  0  0  0  0  0  0  0  0  0  0  0
   14.6794    9.1749   10.1328 C   0  0  0  0  0  0  0  0  0  0  0  0
   14.0968   10.0761    9.1957 N   0  0  0  0  0  0  0  0  0  0  0  0
   12.9543    9.4166    8.5907 C   0  0  0  0  0  0  0  0  0  0  0  0
   15.2874   10.4002    8.4370 C   0  0  0  0  0  0  0  0  0  0  0  0
  1  2  1  0
  2  3  1  0
  3  4  1  0
  4  5  2  0
  4  6  1  0
  6  7  1  0
  7  8  2  0
  8  9  1  0
  9 10  1  0
 10 11  2  0
 10 12  1  0
 12 13  1  0
 13 14  1  0
 14 15  2  0
 15 16  1  0
 16 17  1  0
 16 18  2  0
 18 19  1  0
  9 20  2  0
 20 21  1  0
 21 22  2  0
 22 23  1  0
 23 24  1  0
 23 25  1  0
 22  7  1  0
 19 14  1  0
M  END
>  <HIPPO ID>  (22) 
16006

>  <alias>  (22) 
None

>  <ref_mols>  (22) 
c0692a,c0892a

>  <submitter_email>  (22) 
None

>  <ref_pdb>  (22) 
c0270a

>  <inchikey>  (22) 
NDWGGWQNXHVILB-UHFFFAOYSA-N

>  <generation_date>  (22) 
None

>  <original ID>  (22) 
NDWGGWQNXHVILB-UHFFFAOYSA-N

>  <tags>  (22) 
[]

>  <exports>  (22) 
nan

>  <method>  (22) 
None

>  <submitter_name>  (22) 
None

>  <original SMILES>  (22) 
COCC(=O)Nc1cc(C(=O)NCc2cc(Br)cs2)ccc1N(C)C

>  <ref_url>  (22) 
None

$$$$
LRTXRGLMFKQYAZ-MRXNPFEDSA-N
     RDKit          3D

 25 26  0  0  0  0  0  0  0  0999 V2000
   17.4585   11.6361   11.6628 C   0  0  0  0  0  0  0  0  0  0  0  0
   17.3253   10.6037   10.5642 C   0  0  0  0  0  0  0  0  0  0  0  0
   16.3494    9.4721   10.8157 C   0  0  0  0  0  0  0  0  0  0  0  0
   14.9433    9.7217   10.3055 C   0  0  1  0  0  0  0  0  0  0  0  0
   14.1154    8.6505   10.7349 O   0  0  0  0  0  0  0  0  0  0  0  0
   13.9371    7.6266    9.7761 C   0  0  0  0  0  0  0  0  0  0  0  0
   14.3977   11.1284   10.6320 C   0  0  0  0  0  0  0  0  0  0  0  0
   14.1656   11.8917    9.6891 O   0  0  0  0  0  0  0  0  0  0  0  0
   14.1841   11.7007   11.8422 N   0  0  0  0  0  0  0  0  0  0  0  0
   14.5080   11.2918   13.1273 C   0  0  0  0  0  0  0  0  0  0  0  0
   14.7518   12.2768   14.0837 C   0  0  0  0  0  0  0  0  0  0  0  0
   15.2883   11.9192   15.3211 C   0  0  0  0  0  0  0  0  0  0  0  0
   15.5537   10.5779   15.6095 C   0  0  0  0  0  0  0  0  0  0  0  0
   16.2595   10.1830   17.1153 Cl  0  0  0  0  0  0  0  0  0  0  0  0
   15.2296    9.6065   14.6790 C   0  0  0  0  0  0  0  0  0  0  0  0
   15.4296    8.1615   14.8293 C   0  0  0  0  0  0  0  0  0  0  0  0
   16.2496    7.5823   14.1300 O   0  0  0  0  0  0  0  0  0  0  0  0
   14.5108    7.5535   15.6453 N   0  0  0  0  0  0  0  0  0  0  0  0
   14.1861    6.1630   15.4449 C   0  0  0  0  0  0  0  0  0  0  0  0
   13.0248    6.0706   14.4967 C   0  0  0  0  0  0  0  0  0  0  0  0
   12.9687    5.4121   13.2837 C   0  0  0  0  0  0  0  0  0  0  0  0
   11.6732    5.4666   12.6930 C   0  0  0  0  0  0  0  0  0  0  0  0
   10.7895    6.1967   13.4541 C   0  0  0  0  0  0  0  0  0  0  0  0
   11.5188    6.8128   14.8712 S   0  0  0  0  0  0  0  0  0  0  0  0
   14.6691    9.9671   13.4670 C   0  0  0  0  0  0  0  0  0  0  0  0
  1  2  1  0
  2  3  1  0
  4  3  1  1
  4  5  1  0
  5  6  1  0
  4  7  1  0
  7  8  2  0
  7  9  1  0
  9 10  1  0
 10 11  2  0
 11 12  1  0
 12 13  2  0
 13 14  1  0
 13 15  1  0
 15 16  1  0
 16 17  2  0
 16 18  1  0
 18 19  1  0
 19 20  1  0
 20 21  2  0
 21 22  1  0
 22 23  2  0
 23 24  1  0
 15 25  2  0
 25 10  1  0
 24 20  1  0
M  END
>  <HIPPO ID>  (23) 
16022

>  <alias>  (23) 
None

>  <ref_mols>  (23) 
c0692a,c0892a

>  <submitter_email>  (23) 
None

>  <ref_pdb>  (23) 
c0270a

>  <inchikey>  (23) 
LRTXRGLMFKQYAZ-MRXNPFEDSA-N

>  <generation_date>  (23) 
None

>  <original ID>  (23) 
LRTXRGLMFKQYAZ-MRXNPFEDSA-N

>  <tags>  (23) 
[]

>  <exports>  (23) 
nan

>  <method>  (23) 
None

>  <submitter_name>  (23) 
None

>  <original SMILES>  (23) 
CCC[C@@H](OC)C(=O)Nc1ccc(Cl)c(C(=O)NCc2cccs2)c1

>  <ref_url>  (23) 
None

$$$$
FSUYETMOLRPUPX-INIZCTEOSA-N
     RDKit          3D

 25 26  0  0  0  0  0  0  0  0999 V2000
   22.8117   11.4833    9.7471 C   0  0  0  0  0  0  0  0  0  0  0  0
   21.5110   10.8327   10.0749 C   0  0  0  0  0  0  0  0  0  0  0  0
   20.5984   11.9093   10.1407 O   0  0  0  0  0  0  0  0  0  0  0  0
   19.6579   11.7060   11.1302 C   0  0  1  0  0  0  0  0  0  0  0  0
   19.8003   12.9053   12.0539 C   0  0  0  0  0  0  0  0  0  0  0  0
   21.2026   12.9684   12.6669 C   0  0  0  0  0  0  0  0  0  0  0  0
   18.2905   11.2525   10.5898 C   0  0  0  0  0  0  0  0  0  0  0  0
   18.1994   10.2264    9.9333 O   0  0  0  0  0  0  0  0  0  0  0  0
   17.2059   11.9770   10.9885 N   0  0  0  0  0  0  0  0  0  0  0  0
   15.9540   11.4476   11.3130 C   0  0  0  0  0  0  0  0  0  0  0  0
   15.1357   12.3084   12.0326 C   0  0  0  0  0  0  0  0  0  0  0  0
   14.4002   11.7731   13.0635 C   0  0  0  0  0  0  0  0  0  0  0  0
   14.4826   10.4006   13.3026 C   0  0  0  0  0  0  0  0  0  0  0  0
   14.0715    9.9170   14.8927 Cl  0  0  0  0  0  0  0  0  0  0  0  0
   15.0279    9.5268   12.3506 C   0  0  0  0  0  0  0  0  0  0  0  0
   15.0218    8.0382   12.4003 C   0  0  0  0  0  0  0  0  0  0  0  0
   15.2407    7.3819   11.3875 O   0  0  0  0  0  0  0  0  0  0  0  0
   14.7798    7.4508   13.6142 N   0  0  0  0  0  0  0  0  0  0  0  0
   14.3836    6.0696   13.7150 C   0  0  0  0  0  0  0  0  0  0  0  0
   12.8976    5.9890   13.5467 C   0  0  0  0  0  0  0  0  0  0  0  0
   12.1956    5.3660   12.5346 C   0  0  0  0  0  0  0  0  0  0  0  0
   10.7860    5.4749   12.7032 C   0  0  0  0  0  0  0  0  0  0  0  0
   10.4532    6.1922   13.8291 C   0  0  0  0  0  0  0  0  0  0  0  0
   11.8365    6.7233   14.6811 S   0  0  0  0  0  0  0  0  0  0  0  0
   15.7229   10.0807   11.2896 C   0  0  0  0  0  0  0  0  0  0  0  0
  1  2  1  0
  2  3  1  0
  3  4  1  0
  4  5  1  6
  5  6  1  0
  4  7  1  0
  7  8  2  0
  7  9  1  0
  9 10  1  0
 10 11  2  0
 11 12  1  0
 12 13  2  0
 13 14  1  0
 13 15  1  0
 15 16  1  0
 16 17  2  0
 16 18  1  0
 18 19  1  0
 19 20  1  0
 20 21  2  0
 21 22  1  0
 22 23  2  0
 23 24  1  0
 15 25  2  0
 25 10  1  0
 24 20  1  0
M  END
>  <HIPPO ID>  (24) 
16026

>  <alias>  (24) 
None

>  <ref_mols>  (24) 
c0692a,c0892a

>  <submitter_email>  (24) 
None

>  <ref_pdb>  (24) 
c0270a

>  <inchikey>  (24) 
FSUYETMOLRPUPX-INIZCTEOSA-N

>  <generation_date>  (24) 
None

>  <original ID>  (24) 
FSUYETMOLRPUPX-INIZCTEOSA-N

>  <tags>  (24) 
[]

>  <exports>  (24) 
nan

>  <method>  (24) 
None

>  <submitter_name>  (24) 
None

>  <original SMILES>  (24) 
CCO[C@@H](CC)C(=O)Nc1ccc(Cl)c(C(=O)NCc2cccs2)c1

>  <ref_url>  (24) 
None

$$$$
SXVMVHMDJIKJMK-HXPMCKFVSA-N
     RDKit          3D

 26 29  0  0  0  0  0  0  0  0999 V2000
   14.6790    8.0189   16.7556 O   0  0  0  0  0  0  0  0  0  0  0  0
   14.9106    8.4081   15.6193 C   0  0  0  0  0  0  0  0  0  0  0  0
   14.8860    7.5858   14.5139 N   0  0  0  0  0  0  0  0  0  0  0  0
   14.4228    6.2182   14.6086 C   0  0  0  0  0  0  0  0  0  0  0  0
   13.0545    6.1264   14.0021 C   0  0  0  0  0  0  0  0  0  0  0  0
   12.6733    5.4631   12.8514 C   0  0  0  0  0  0  0  0  0  0  0  0
   11.2682    5.5335   12.6221 C   0  0  0  0  0  0  0  0  0  0  0  0
   10.6220    6.2638   13.5925 C   0  0  0  0  0  0  0  0  0  0  0  0
   11.7043    6.8625   14.7705 S   0  0  0  0  0  0  0  0  0  0  0  0
   15.1343    9.8513   15.3848 C   0  0  0  0  0  0  0  0  0  0  0  0
   14.4307   10.4697   14.3586 C   0  0  0  0  0  0  0  0  0  0  0  0
   14.5149   11.8438   14.1706 C   0  0  0  0  0  0  0  0  0  0  0  0
   13.8873   12.4442   13.0986 N   0  0  0  0  0  0  0  0  0  0  0  0
   13.9090   12.0938   11.7858 C   0  0  0  0  0  0  0  0  0  0  0  0
   13.0773   12.6391   11.0553 O   0  0  0  0  0  0  0  0  0  0  0  0
   14.9949   11.1807   11.2096 C   0  0  2  0  0  0  0  0  0  0  0  0
   16.4181   11.6744   11.4891 C   0  0  0  0  0  0  0  0  0  0  0  0
   17.2413   10.6254   10.7505 C   0  0  0  0  0  0  0  0  0  0  0  0
   16.2111    9.5154   10.4414 C   0  0  2  0  0  0  0  0  0  0  0  0
   15.3484    9.9463    9.2799 C   0  0  0  0  0  0  0  0  0  0  0  0
   14.7863   11.1776    9.7579 O   0  0  0  0  0  0  0  0  0  0  0  0
   15.1879    9.7070   11.5365 C   0  0  0  0  0  0  0  0  0  0  0  0
   15.1612   12.6467   15.0948 C   0  0  0  0  0  0  0  0  0  0  0  0
   15.8727   12.0383   16.1199 C   0  0  0  0  0  0  0  0  0  0  0  0
   15.8986   10.6430   16.2387 C   0  0  0  0  0  0  0  0  0  0  0  0
   16.9382    9.9746   17.4275 Cl  0  0  0  0  0  0  0  0  0  0  0  0
  1  2  2  0
  2  3  1  0
  3  4  1  0
  4  5  1  0
  5  6  2  0
  6  7  1  0
  7  8  2  0
  8  9  1  0
  2 10  1  0
 10 11  2  0
 11 12  1  0
 12 13  1  0
 13 14  1  0
 14 15  2  0
 16 14  1  1
 16 17  1  0
 17 18  1  0
 19 18  1  1
 19 20  1  0
 20 21  1  0
 19 22  1  0
 12 23  2  0
 23 24  1  0
 24 25  2  0
 25 26  1  0
  9  5  1  0
 25 10  1  0
 21 16  1  0
 22 16  1  0
M  END
>  <HIPPO ID>  (25) 
16085

>  <alias>  (25) 
None

>  <ref_mols>  (25) 
c0692a,c0892a

>  <submitter_email>  (25) 
None

>  <ref_pdb>  (25) 
c0270a

>  <inchikey>  (25) 
SXVMVHMDJIKJMK-HXPMCKFVSA-N

>  <generation_date>  (25) 
None

>  <original ID>  (25) 
SXVMVHMDJIKJMK-HXPMCKFVSA-N

>  <tags>  (25) 
[]

>  <exports>  (25) 
nan

>  <method>  (25) 
None

>  <submitter_name>  (25) 
None

>  <original SMILES>  (25) 
O=C(NCc1cccs1)c1cc(NC(=O)[C@]23CC[C@H](CO2)C3)ccc1Cl

>  <ref_url>  (25) 
None

$$$$
NUISEBNOOGXTTC-GOSISDBHSA-N
     RDKit          3D

 26 29  0  0  0  0  0  0  0  0999 V2000
   13.8054   11.6005   10.4902 C   0  0  0  0  0  0  0  0  0  0  0  0
   15.0167   10.7880   10.1831 C   0  0  2  0  0  0  0  0  0  0  0  0
   16.3263   11.2174   10.9702 C   0  0  0  0  0  0  0  0  0  0  0  0
   17.4459   10.7208   10.8838 O   0  0  0  0  0  0  0  0  0  0  0  0
   16.1386   12.2536   11.8555 N   0  0  0  0  0  0  0  0  0  0  0  0
   15.5996   11.8847   13.1008 C   0  0  0  0  0  0  0  0  0  0  0  0
   15.5639   12.8046   14.1341 C   0  0  0  0  0  0  0  0  0  0  0  0
   15.2056   12.3659   15.4039 C   0  0  0  0  0  0  0  0  0  0  0  0
   14.8643   11.0282   15.6143 C   0  0  0  0  0  0  0  0  0  0  0  0
   14.7945   10.1500   14.5442 C   0  0  0  0  0  0  0  0  0  0  0  0
   14.1505    8.8440   14.6624 C   0  0  0  0  0  0  0  0  0  0  0  0
   13.0867    8.8149   15.2631 O   0  0  0  0  0  0  0  0  0  0  0  0
   14.7622    7.7664   14.0694 N   0  0  0  0  0  0  0  0  0  0  0  0
   14.3002    6.4199   14.3455 C   0  0  0  0  0  0  0  0  0  0  0  0
   12.9969    6.1243   13.6652 C   0  0  0  0  0  0  0  0  0  0  0  0
   12.7838    5.5854   12.4116 C   0  0  0  0  0  0  0  0  0  0  0  0
   11.3993    5.4200   12.1216 C   0  0  0  0  0  0  0  0  0  0  0  0
   10.5938    5.8151   13.1619 C   0  0  0  0  0  0  0  0  0  0  0  0
   11.5039    6.3817   14.4808 S   0  0  0  0  0  0  0  0  0  0  0  0
   15.1950   10.5686   13.3086 C   0  0  0  0  0  0  0  0  0  0  0  0
   15.2823   10.8680    8.7644 O   0  0  0  0  0  0  0  0  0  0  0  0
   15.7961    9.6409    8.8693 C   0  0  0  0  0  0  0  0  0  0  0  0
   16.5724    8.9718    8.2735 O   0  0  0  0  0  0  0  0  0  0  0  0
   14.9009    9.3324    9.9226 C   0  0  0  0  0  0  0  0  0  0  0  0
   13.7840    8.4253    9.5020 C   0  0  0  0  0  0  0  0  0  0  0  0
   14.6302    8.1201   10.7094 C   0  0  0  0  0  0  0  0  0  0  0  0
  2  1  1  6
  2  3  1  0
  3  4  2  0
  3  5  1  0
  5  6  1  0
  6  7  2  0
  7  8  1  0
  8  9  2  0
  9 10  1  0
 10 11  1  0
 11 12  2  0
 11 13  1  0
 13 14  1  0
 14 15  1  0
 15 16  2  0
 16 17  1  0
 17 18  2  0
 18 19  1  0
 10 20  2  0
  2 21  1  0
 21 22  1  0
 22 23  2  0
 22 24  1  0
 24 25  1  0
 25 26  1  0
 24  2  1  0
 20  6  1  0
 26 24  1  0
 19 15  1  0
M  END
>  <HIPPO ID>  (26) 
16128

>  <alias>  (26) 
None

>  <ref_mols>  (26) 
c0692a,c0892a

>  <submitter_email>  (26) 
None

>  <ref_pdb>  (26) 
c0270a

>  <inchikey>  (26) 
NUISEBNOOGXTTC-GOSISDBHSA-N

>  <generation_date>  (26) 
None

>  <original ID>  (26) 
NUISEBNOOGXTTC-GOSISDBHSA-N

>  <tags>  (26) 
[]

>  <exports>  (26) 
nan

>  <method>  (26) 
None

>  <submitter_name>  (26) 
None

>  <original SMILES>  (26) 
C[C@]1(C(=O)Nc2cccc(C(=O)NCc3cccs3)c2)OC(=O)C12CC2

>  <ref_url>  (26) 
None

$$$$
NUISEBNOOGXTTC-SFHVURJKSA-N
     RDKit          3D

 26 29  0  0  0  0  0  0  0  0999 V2000
   13.8490   10.9486    9.6409 C   0  0  0  0  0  0  0  0  0  0  0  0
   14.7666   10.3481   10.6251 C   0  0  1  0  0  0  0  0  0  0  0  0
   16.0473   11.2136   10.8013 C   0  0  0  0  0  0  0  0  0  0  0  0
   17.1743   10.9371   10.4009 O   0  0  0  0  0  0  0  0  0  0  0  0
   15.8339   12.3404   11.6116 N   0  0  0  0  0  0  0  0  0  0  0  0
   15.6773   12.0206   12.9827 C   0  0  0  0  0  0  0  0  0  0  0  0
   14.8509   12.7688   13.7977 C   0  0  0  0  0  0  0  0  0  0  0  0
   14.4712   12.2167   15.0174 C   0  0  0  0  0  0  0  0  0  0  0  0
   14.7854   10.8807   15.3323 C   0  0  0  0  0  0  0  0  0  0  0  0
   15.5592   10.1283   14.4672 C   0  0  0  0  0  0  0  0  0  0  0  0
   15.6162    8.6331   14.4361 C   0  0  0  0  0  0  0  0  0  0  0  0
   16.4893    8.0550   13.7994 O   0  0  0  0  0  0  0  0  0  0  0  0
   14.5578    7.9808   15.0253 N   0  0  0  0  0  0  0  0  0  0  0  0
   14.3415    6.5537   14.8537 C   0  0  0  0  0  0  0  0  0  0  0  0
   12.9440    6.2789   14.3555 C   0  0  0  0  0  0  0  0  0  0  0  0
   12.5706    5.4399   13.3191 C   0  0  0  0  0  0  0  0  0  0  0  0
   11.1620    5.4052   13.1140 C   0  0  0  0  0  0  0  0  0  0  0  0
   10.4978    6.2215   14.0001 C   0  0  0  0  0  0  0  0  0  0  0  0
   11.5694    7.0216   15.0673 S   0  0  0  0  0  0  0  0  0  0  0  0
   16.1527   10.7815   13.4108 C   0  0  0  0  0  0  0  0  0  0  0  0
   14.1763    9.9677   11.8912 O   0  0  0  0  0  0  0  0  0  0  0  0
   14.4660    8.6770   11.6699 C   0  0  0  0  0  0  0  0  0  0  0  0
   14.2259    7.6368   12.2207 O   0  0  0  0  0  0  0  0  0  0  0  0
   14.9023    8.9423   10.3678 C   0  0  0  0  0  0  0  0  0  0  0  0
   14.4897    8.0813    9.2464 C   0  0  0  0  0  0  0  0  0  0  0  0
   15.9427    8.3115    9.6222 C   0  0  0  0  0  0  0  0  0  0  0  0
  2  1  1  6
  2  3  1  0
  3  4  2  0
  3  5  1  0
  5  6  1  0
  6  7  2  0
  7  8  1  0
  8  9  2  0
  9 10  1  0
 10 11  1  0
 11 12  2  0
 11 13  1  0
 13 14  1  0
 14 15  1  0
 15 16  2  0
 16 17  1  0
 17 18  2  0
 18 19  1  0
 10 20  2  0
  2 21  1  0
 21 22  1  0
 22 23  2  0
 22 24  1  0
 24 25  1  0
 25 26  1  0
 24  2  1  0
 20  6  1  0
 26 24  1  0
 19 15  1  0
M  END
>  <HIPPO ID>  (27) 
16129

>  <alias>  (27) 
None

>  <ref_mols>  (27) 
c0692a,c0892a

>  <submitter_email>  (27) 
None

>  <ref_pdb>  (27) 
c0270a

>  <inchikey>  (27) 
NUISEBNOOGXTTC-SFHVURJKSA-N

>  <generation_date>  (27) 
None

>  <original ID>  (27) 
NUISEBNOOGXTTC-SFHVURJKSA-N

>  <tags>  (27) 
[]

>  <exports>  (27) 
nan

>  <method>  (27) 
None

>  <submitter_name>  (27) 
None

>  <original SMILES>  (27) 
C[C@@]1(C(=O)Nc2cccc(C(=O)NCc3cccs3)c2)OC(=O)C12CC2

>  <ref_url>  (27) 
None

$$$$
APPSMLLTKTYQDO-CQSZACIVSA-N
     RDKit          3D

 26 28  0  0  0  0  0  0  0  0999 V2000
   16.6688   11.5441   10.8448 O   0  0  0  0  0  0  0  0  0  0  0  0
   15.6882   12.0868   11.3377 C   0  0  0  0  0  0  0  0  0  0  0  0
   14.2678   11.9898   10.8461 C   0  0  0  0  0  0  0  0  0  0  0  0
   14.1704   11.5871    9.5186 O   0  0  0  0  0  0  0  0  0  0  0  0
   14.7349   10.3544    9.1342 C   0  0  0  0  0  0  0  0  0  0  0  0
   13.8244    9.2371    9.5763 C   0  0  2  0  0  0  0  0  0  0  0  0
   14.3068    8.6571   10.8951 C   0  0  0  0  0  0  0  0  0  0  0  0
   15.5695    7.9659   10.5009 C   0  0  0  0  0  0  0  0  0  0  0  0
   15.3926    7.7873    9.1083 O   0  0  0  0  0  0  0  0  0  0  0  0
   14.0417    8.0392    8.7732 C   0  0  0  0  0  0  0  0  0  0  0  0
   15.7417   12.7309   12.5451 N   0  0  0  0  0  0  0  0  0  0  0  0
   15.6902   11.8693   13.6517 C   0  0  0  0  0  0  0  0  0  0  0  0
   15.2884   12.3600   14.8775 C   0  0  0  0  0  0  0  0  0  0  0  0
   15.0765   11.4554   15.9112 C   0  0  0  0  0  0  0  0  0  0  0  0
   15.1150   10.0739   15.6764 C   0  0  0  0  0  0  0  0  0  0  0  0
   15.4940    9.5972   14.4269 C   0  0  0  0  0  0  0  0  0  0  0  0
   15.4065    8.1806   14.0018 C   0  0  0  0  0  0  0  0  0  0  0  0
   16.1403    7.7141   13.1452 O   0  0  0  0  0  0  0  0  0  0  0  0
   14.3975    7.4668   14.5747 N   0  0  0  0  0  0  0  0  0  0  0  0
   14.1028    6.1155   14.1736 C   0  0  0  0  0  0  0  0  0  0  0  0
   12.6700    6.0416   13.7495 C   0  0  0  0  0  0  0  0  0  0  0  0
   12.1530    5.4201   12.6304 C   0  0  0  0  0  0  0  0  0  0  0  0
   10.7322    5.4937   12.5787 C   0  0  0  0  0  0  0  0  0  0  0  0
   10.2100    6.1790   13.6507 C   0  0  0  0  0  0  0  0  0  0  0  0
   11.4250    6.7413   14.7074 S   0  0  0  0  0  0  0  0  0  0  0  0
   15.9047   10.5020   13.4754 C   0  0  0  0  0  0  0  0  0  0  0  0
  1  2  2  0
  2  3  1  0
  3  4  1  0
  4  5  1  0
  6  5  1  6
  6  7  1  0
  7  8  1  0
  8  9  1  0
  9 10  1  0
  2 11  1  0
 11 12  1  0
 12 13  2  0
 13 14  1  0
 14 15  2  0
 15 16  1  0
 16 17  1  0
 17 18  2  0
 17 19  1  0
 19 20  1  0
 20 21  1  0
 21 22  2  0
 22 23  1  0
 23 24  2  0
 24 25  1  0
 16 26  2  0
 10  6  1  0
 26 12  1  0
 25 21  1  0
M  END
>  <HIPPO ID>  (28) 
16254

>  <alias>  (28) 
None

>  <ref_mols>  (28) 
c0692a,c0892a

>  <submitter_email>  (28) 
None

>  <ref_pdb>  (28) 
c0270a

>  <inchikey>  (28) 
APPSMLLTKTYQDO-CQSZACIVSA-N

>  <generation_date>  (28) 
None

>  <original ID>  (28) 
APPSMLLTKTYQDO-CQSZACIVSA-N

>  <tags>  (28) 
[]

>  <exports>  (28) 
nan

>  <method>  (28) 
None

>  <submitter_name>  (28) 
None

>  <original SMILES>  (28) 
O=C(COC[C@@H]1CCOC1)Nc1cccc(C(=O)NCc2cccs2)c1

>  <ref_url>  (28) 
None

$$$$
APPSMLLTKTYQDO-CQSZACIVSA-N
     RDKit          3D

 26 28  0  0  0  0  0  0  0  0999 V2000
   16.8175   10.3900   12.4073 O   0  0  0  0  0  0  0  0  0  0  0  0
   16.3436   11.1942   11.6110 C   0  0  0  0  0  0  0  0  0  0  0  0
   16.7551   11.0906   10.2025 C   0  0  0  0  0  0  0  0  0  0  0  0
   15.6508   11.2660    9.3343 O   0  0  0  0  0  0  0  0  0  0  0  0
   14.6010   10.3522    9.4926 C   0  0  0  0  0  0  0  0  0  0  0  0
   14.9309    8.9207    9.2062 C   0  0  2  0  0  0  0  0  0  0  0  0
   13.6574    8.1371    9.0437 C   0  0  0  0  0  0  0  0  0  0  0  0
   13.8398    6.8982    9.8823 C   0  0  0  0  0  0  0  0  0  0  0  0
   15.1822    6.8871   10.3465 O   0  0  0  0  0  0  0  0  0  0  0  0
   15.6300    8.2314   10.3338 C   0  0  0  0  0  0  0  0  0  0  0  0
   15.3934   12.1811   11.9211 N   0  0  0  0  0  0  0  0  0  0  0  0
   14.7500   11.9148   13.1412 C   0  0  0  0  0  0  0  0  0  0  0  0
   15.0392   12.6195   14.2878 C   0  0  0  0  0  0  0  0  0  0  0  0
   15.0845   11.8893   15.4819 C   0  0  0  0  0  0  0  0  0  0  0  0
   14.8861   10.4903   15.4951 C   0  0  0  0  0  0  0  0  0  0  0  0
   14.4926    9.8482   14.3312 C   0  0  0  0  0  0  0  0  0  0  0  0
   14.4605    8.3881   14.0645 C   0  0  0  0  0  0  0  0  0  0  0  0
   14.4355    7.9437   12.9238 O   0  0  0  0  0  0  0  0  0  0  0  0
   14.3660    7.5471   15.1345 N   0  0  0  0  0  0  0  0  0  0  0  0
   14.0649    6.1605   14.8606 C   0  0  0  0  0  0  0  0  0  0  0  0
   12.6838    6.0266   14.2774 C   0  0  0  0  0  0  0  0  0  0  0  0
   12.3204    5.3519   13.1270 C   0  0  0  0  0  0  0  0  0  0  0  0
   10.9207    5.4140   12.8760 C   0  0  0  0  0  0  0  0  0  0  0  0
   10.2614    6.1553   13.8286 C   0  0  0  0  0  0  0  0  0  0  0  0
   11.3250    6.7805   15.0100 S   0  0  0  0  0  0  0  0  0  0  0  0
   14.2674   10.6206   13.2196 C   0  0  0  0  0  0  0  0  0  0  0  0
  1  2  2  0
  2  3  1  0
  3  4  1  0
  4  5  1  0
  6  5  1  1
  6  7  1  0
  7  8  1  0
  8  9  1  0
  9 10  1  0
  2 11  1  0
 11 12  1  0
 12 13  2  0
 13 14  1  0
 14 15  2  0
 15 16  1  0
 16 17  1  0
 17 18  2  0
 17 19  1  0
 19 20  1  0
 20 21  1  0
 21 22  2  0
 22 23  1  0
 23 24  2  0
 24 25  1  0
 16 26  2  0
 10  6  1  0
 26 12  1  0
 25 21  1  0
M  END
>  <HIPPO ID>  (29) 
16255

>  <alias>  (29) 
None

>  <ref_mols>  (29) 
c0692a,c0892a

>  <submitter_email>  (29) 
None

>  <ref_pdb>  (29) 
c0270a

>  <inchikey>  (29) 
APPSMLLTKTYQDO-CQSZACIVSA-N

>  <generation_date>  (29) 
None

>  <original ID>  (29) 
APPSMLLTKTYQDO-CQSZACIVSA-N

>  <tags>  (29) 
[]

>  <exports>  (29) 
nan

>  <method>  (29) 
None

>  <submitter_name>  (29) 
None

>  <original SMILES>  (29) 
O=C(COC[C@@H]1CCOC1)Nc1cccc(C(=O)NCc2cccs2)c1

>  <ref_url>  (29) 
None

$$$$
BHTJJHWIJVNGRO-QGZVFWFLSA-N
     RDKit          3D

 26 28  0  0  0  0  0  0  0  0999 V2000
   13.5008    7.1484   11.3974 C   0  0  0  0  0  0  0  0  0  0  0  0
   14.0516    7.5144   10.0288 C   0  0  0  0  0  0  0  0  0  0  0  0
   13.8027    6.1425    9.3773 C   0  0  0  0  0  0  0  0  0  0  0  0
   15.4895    7.9605   10.3209 C   0  0  0  0  0  0  0  0  0  0  0  0
   16.0425    9.0078    9.3760 C   0  0  0  0  0  0  0  0  0  0  0  0
   15.1819   10.2454    9.3168 C   0  0  2  0  0  0  0  0  0  0  0  0
   15.5863   11.2010   10.4350 C   0  0  0  0  0  0  0  0  0  0  0  0
   16.7112   11.2252   10.9269 O   0  0  0  0  0  0  0  0  0  0  0  0
   14.5387   11.9914   10.9558 N   0  0  0  0  0  0  0  0  0  0  0  0
   14.4934   11.8206   12.3649 C   0  0  0  0  0  0  0  0  0  0  0  0
   14.7377   12.8084   13.2938 C   0  0  0  0  0  0  0  0  0  0  0  0
   15.0203   12.4198   14.6162 C   0  0  0  0  0  0  0  0  0  0  0  0
   15.1347   11.0606   14.9752 C   0  0  0  0  0  0  0  0  0  0  0  0
   14.8973   10.0962   14.0128 C   0  0  0  0  0  0  0  0  0  0  0  0
   15.1023    8.6399   14.1400 C   0  0  0  0  0  0  0  0  0  0  0  0
   15.8645    8.0296   13.4031 O   0  0  0  0  0  0  0  0  0  0  0  0
   14.2791    8.0318   15.0415 N   0  0  0  0  0  0  0  0  0  0  0  0
   14.1069    6.5979   15.0467 C   0  0  0  0  0  0  0  0  0  0  0  0
   12.7473    6.2419   14.5155 C   0  0  0  0  0  0  0  0  0  0  0  0
   12.4301    5.2281   13.6312 C   0  0  0  0  0  0  0  0  0  0  0  0
   11.0399    5.1681   13.3288 C   0  0  0  0  0  0  0  0  0  0  0  0
   10.3295    6.1243   14.0163 C   0  0  0  0  0  0  0  0  0  0  0  0
   11.3346    7.0772   15.0181 S   0  0  0  0  0  0  0  0  0  0  0  0
   14.4873   10.4983   12.7702 C   0  0  0  0  0  0  0  0  0  0  0  0
   13.8010    9.9691    9.4604 O   0  0  0  0  0  0  0  0  0  0  0  0
   13.4225    8.6312    9.1572 C   0  0  0  0  0  0  0  0  0  0  0  0
  1  2  1  0
  2  3  1  0
  2  4  1  0
  4  5  1  0
  5  6  1  0
  6  7  1  1
  7  8  2  0
  7  9  1  0
  9 10  1  0
 10 11  2  0
 11 12  1  0
 12 13  2  0
 13 14  1  0
 14 15  1  0
 15 16  2  0
 15 17  1  0
 17 18  1  0
 18 19  1  0
 19 20  2  0
 20 21  1  0
 21 22  2  0
 22 23  1  0
 14 24  2  0
  6 25  1  0
 25 26  1  0
 26  2  1  0
 24 10  1  0
 23 19  1  0
M  END
>  <HIPPO ID>  (30) 
16288

>  <alias>  (30) 
None

>  <ref_mols>  (30) 
c0692a,c0892a

>  <submitter_email>  (30) 
None

>  <ref_pdb>  (30) 
c0270a

>  <inchikey>  (30) 
BHTJJHWIJVNGRO-QGZVFWFLSA-N

>  <generation_date>  (30) 
None

>  <original ID>  (30) 
BHTJJHWIJVNGRO-QGZVFWFLSA-N

>  <tags>  (30) 
[]

>  <exports>  (30) 
nan

>  <method>  (30) 
None

>  <submitter_name>  (30) 
None

>  <original SMILES>  (30) 
CC1(C)CC[C@H](C(=O)Nc2cccc(C(=O)NCc3cccs3)c2)OC1

>  <ref_url>  (30) 
None

$$$$
BHTJJHWIJVNGRO-KRWDZBQOSA-N
     RDKit          3D

 26 28  0  0  0  0  0  0  0  0999 V2000
   14.9715    7.2049   10.0738 C   0  0  0  0  0  0  0  0  0  0  0  0
   14.6290    8.4530    9.2364 C   0  0  0  0  0  0  0  0  0  0  0  0
   13.4387    8.1778    8.3338 C   0  0  0  0  0  0  0  0  0  0  0  0
   14.0018    9.3820   10.1886 C   0  0  0  0  0  0  0  0  0  0  0  0
   14.8343   10.1327   11.1458 C   0  0  0  0  0  0  0  0  0  0  0  0
   15.8758   10.8292   10.3519 C   0  0  1  0  0  0  0  0  0  0  0  0
   16.8420   11.6787   11.1147 C   0  0  0  0  0  0  0  0  0  0  0  0
   18.0560   11.6016   10.9746 O   0  0  0  0  0  0  0  0  0  0  0  0
   16.2613   12.5651   12.0030 N   0  0  0  0  0  0  0  0  0  0  0  0
   15.9253   12.0226   13.2614 C   0  0  0  0  0  0  0  0  0  0  0  0
   15.0760   12.7020   14.1020 C   0  0  0  0  0  0  0  0  0  0  0  0
   14.5534   12.0032   15.1785 C   0  0  0  0  0  0  0  0  0  0  0  0
   14.6988   10.6033   15.2747 C   0  0  0  0  0  0  0  0  0  0  0  0
   15.4844    9.9247   14.3608 C   0  0  0  0  0  0  0  0  0  0  0  0
   15.4025    8.4544   14.0446 C   0  0  0  0  0  0  0  0  0  0  0  0
   16.1609    7.9103   13.2502 O   0  0  0  0  0  0  0  0  0  0  0  0
   14.3594    7.7678   14.5999 N   0  0  0  0  0  0  0  0  0  0  0  0
   14.1288    6.3748   14.2963 C   0  0  0  0  0  0  0  0  0  0  0  0
   12.7094    6.1962   13.8574 C   0  0  0  0  0  0  0  0  0  0  0  0
   12.2468    5.5062   12.7539 C   0  0  0  0  0  0  0  0  0  0  0  0
   10.8250    5.4913   12.6801 C   0  0  0  0  0  0  0  0  0  0  0  0
   10.2468    6.1778   13.7224 C   0  0  0  0  0  0  0  0  0  0  0  0
   11.4110    6.8413   14.7798 S   0  0  0  0  0  0  0  0  0  0  0  0
   16.2698   10.6958   13.5336 C   0  0  0  0  0  0  0  0  0  0  0  0
   16.5739    9.7950    9.7091 O   0  0  0  0  0  0  0  0  0  0  0  0
   15.7631    9.2800    8.6825 C   0  0  0  0  0  0  0  0  0  0  0  0
  1  2  1  0
  2  3  1  0
  2  4  1  0
  4  5  1  0
  5  6  1  0
  6  7  1  1
  7  8  2  0
  7  9  1  0
  9 10  1  0
 10 11  2  0
 11 12  1  0
 12 13  2  0
 13 14  1  0
 14 15  1  0
 15 16  2  0
 15 17  1  0
 17 18  1  0
 18 19  1  0
 19 20  2  0
 20 21  1  0
 21 22  2  0
 22 23  1  0
 14 24  2  0
  6 25  1  0
 25 26  1  0
 26  2  1  0
 24 10  1  0
 23 19  1  0
M  END
>  <HIPPO ID>  (31) 
16289

>  <alias>  (31) 
None

>  <ref_mols>  (31) 
c0692a,c0892a

>  <submitter_email>  (31) 
None

>  <ref_pdb>  (31) 
c0270a

>  <inchikey>  (31) 
BHTJJHWIJVNGRO-KRWDZBQOSA-N

>  <generation_date>  (31) 
None

>  <original ID>  (31) 
BHTJJHWIJVNGRO-KRWDZBQOSA-N

>  <tags>  (31) 
[]

>  <exports>  (31) 
nan

>  <method>  (31) 
None

>  <submitter_name>  (31) 
None

>  <original SMILES>  (31) 
CC1(C)CC[C@@H](C(=O)Nc2cccc(C(=O)NCc3cccs3)c2)OC1

>  <ref_url>  (31) 
None

$$$$
UQYYVCRIMBGMGF-GOSISDBHSA-N
     RDKit          3D

 27 30  0  0  0  0  0  0  0  0999 V2000
   13.6270    8.9882    8.5304 C   0  0  0  0  0  0  0  0  0  0  0  0
   14.4520    8.8728    9.7725 C   0  0  2  0  0  0  0  0  0  0  0  0
   14.5204   10.3029   10.5301 C   0  0  0  0  0  0  0  0  0  0  0  0
   14.4225   11.4113   10.0027 O   0  0  0  0  0  0  0  0  0  0  0  0
   14.7094   10.1088   11.8670 N   0  0  0  0  0  0  0  0  0  0  0  0
   14.9227   11.0044   12.8906 C   0  0  0  0  0  0  0  0  0  0  0  0
   14.9866   12.3810   12.8066 C   0  0  0  0  0  0  0  0  0  0  0  0
   15.2221   13.0971   13.9804 C   0  0  0  0  0  0  0  0  0  0  0  0
   15.3983   12.4330   15.2106 C   0  0  0  0  0  0  0  0  0  0  0  0
   15.6619   13.4085   16.5941 Cl  0  0  0  0  0  0  0  0  0  0  0  0
   15.3520   11.0428   15.2700 C   0  0  0  0  0  0  0  0  0  0  0  0
   15.3838   10.1811   16.4780 C   0  0  0  0  0  0  0  0  0  0  0  0
   14.7973   10.5055   17.4994 O   0  0  0  0  0  0  0  0  0  0  0  0
   15.9567    8.9294   16.2985 N   0  0  0  0  0  0  0  0  0  0  0  0
   15.4513    7.7730   17.0070 C   0  0  0  0  0  0  0  0  0  0  0  0
   14.5389    7.0062   16.0847 C   0  0  0  0  0  0  0  0  0  0  0  0
   14.8191    5.8643   15.3581 C   0  0  0  0  0  0  0  0  0  0  0  0
   13.6932    5.3965   14.6216 C   0  0  0  0  0  0  0  0  0  0  0  0
   12.5959    6.2140   14.7738 C   0  0  0  0  0  0  0  0  0  0  0  0
   12.9125    7.5025   15.8451 S   0  0  0  0  0  0  0  0  0  0  0  0
   15.0838   10.3536   14.1032 C   0  0  0  0  0  0  0  0  0  0  0  0
   15.8444    8.4821    9.5440 O   0  0  0  0  0  0  0  0  0  0  0  0
   15.7812    7.7105   10.6381 C   0  0  0  0  0  0  0  0  0  0  0  0
   16.5213    7.2263   11.4564 O   0  0  0  0  0  0  0  0  0  0  0  0
   14.3675    7.5810   10.5158 C   0  0  0  0  0  0  0  0  0  0  0  0
   13.8044    6.2636   10.0516 C   0  0  0  0  0  0  0  0  0  0  0  0
   13.5374    6.7708   11.4359 C   0  0  0  0  0  0  0  0  0  0  0  0
  2  1  1  6
  2  3  1  0
  3  4  2  0
  3  5  1  0
  5  6  1  0
  6  7  2  0
  7  8  1  0
  8  9  2  0
  9 10  1  0
  9 11  1  0
 11 12  1  0
 12 13  2  0
 12 14  1  0
 14 15  1  0
 15 16  1  0
 16 17  2  0
 17 18  1  0
 18 19  2  0
 19 20  1  0
 11 21  2  0
  2 22  1  0
 22 23  1  0
 23 24  2  0
 23 25  1  0
 25 26  1  0
 26 27  1  0
 25  2  1  0
 21  6  1  0
 27 25  1  0
 20 16  1  0
M  END
>  <HIPPO ID>  (32) 
16450

>  <alias>  (32) 
None

>  <ref_mols>  (32) 
c0692a,c0892a

>  <submitter_email>  (32) 
None

>  <ref_pdb>  (32) 
c0270a

>  <inchikey>  (32) 
UQYYVCRIMBGMGF-GOSISDBHSA-N

>  <generation_date>  (32) 
None

>  <original ID>  (32) 
UQYYVCRIMBGMGF-GOSISDBHSA-N

>  <tags>  (32) 
[]

>  <exports>  (32) 
nan

>  <method>  (32) 
None

>  <submitter_name>  (32) 
None

>  <original SMILES>  (32) 
C[C@]1(C(=O)Nc2ccc(Cl)c(C(=O)NCc3cccs3)c2)OC(=O)C12CC2

>  <ref_url>  (32) 
None

$$$$
YVQITINKLAUDFA-GFCCVEGCSA-N
     RDKit          3D

 27 28  0  0  0  0  0  0  0  0999 V2000
   16.3749    9.4373   15.3625 C   0  0  0  0  0  0  0  0  0  0  0  0
   14.9198    9.7554   15.1447 C   0  0  0  0  0  0  0  0  0  0  0  0
   14.5933   10.2052   13.8508 O   0  0  0  0  0  0  0  0  0  0  0  0
   15.1659   11.4507   13.4606 C   0  0  2  0  0  0  0  0  0  0  0  0
   14.1207   12.5163   13.6909 C   0  0  0  0  0  0  0  0  0  0  0  0
   15.5199   11.5419   11.9781 C   0  0  0  0  0  0  0  0  0  0  0  0
   16.3701   12.2728   11.4896 O   0  0  0  0  0  0  0  0  0  0  0  0
   14.6850   10.8389   11.1984 N   0  0  0  0  0  0  0  0  0  0  0  0
   14.8381    9.4501   11.1001 C   0  0  0  0  0  0  0  0  0  0  0  0
   15.5184    8.6649   11.9740 C   0  0  0  0  0  0  0  0  0  0  0  0
   15.3526    7.3044   11.8860 C   0  0  0  0  0  0  0  0  0  0  0  0
   15.9965    6.4635   12.8427 C   0  0  0  0  0  0  0  0  0  0  0  0
   16.8590    5.6993   12.4380 O   0  0  0  0  0  0  0  0  0  0  0  0
   15.6170    6.6242   14.1492 N   0  0  0  0  0  0  0  0  0  0  0  0
   14.6358    5.6842   14.6520 C   0  0  0  0  0  0  0  0  0  0  0  0
   13.2348    5.9959   14.2420 C   0  0  0  0  0  0  0  0  0  0  0  0
   12.5222    5.4508   13.1923 C   0  0  0  0  0  0  0  0  0  0  0  0
   11.1757    5.8691   13.2099 C   0  0  0  0  0  0  0  0  0  0  0  0
    9.9463    5.2528   11.9523 Br  0  0  0  0  0  0  0  0  0  0  0  0
   10.8713    6.7251   14.2327 C   0  0  0  0  0  0  0  0  0  0  0  0
   12.2449    7.0267   15.1962 S   0  0  0  0  0  0  0  0  0  0  0  0
   14.6686    6.6828   10.8714 C   0  0  0  0  0  0  0  0  0  0  0  0
   14.1233    7.4751    9.9093 C   0  0  0  0  0  0  0  0  0  0  0  0
   14.2579    8.8654    9.9887 C   0  0  0  0  0  0  0  0  0  0  0  0
   13.9338    9.7791    8.9549 N   0  0  0  0  0  0  0  0  0  0  0  0
   12.9119    9.1868    8.1465 C   0  0  0  0  0  0  0  0  0  0  0  0
   15.2317   10.1904    8.4250 C   0  0  0  0  0  0  0  0  0  0  0  0
  1  2  1  0
  2  3  1  0
  3  4  1  0
  4  5  1  6
  4  6  1  0
  6  7  2  0
  6  8  1  0
  8  9  1  0
  9 10  2  0
 10 11  1  0
 11 12  1  0
 12 13  2  0
 12 14  1  0
 14 15  1  0
 15 16  1  0
 16 17  2  0
 17 18  1  0
 18 19  1  0
 18 20  2  0
 20 21  1  0
 11 22  2  0
 22 23  1  0
 23 24  2  0
 24 25  1  0
 25 26  1  0
 25 27  1  0
 24  9  1  0
 21 16  1  0
M  END
>  <HIPPO ID>  (33) 
16481

>  <alias>  (33) 
None

>  <ref_mols>  (33) 
c0692a,c0892a

>  <submitter_email>  (33) 
None

>  <ref_pdb>  (33) 
c0270a

>  <inchikey>  (33) 
YVQITINKLAUDFA-GFCCVEGCSA-N

>  <generation_date>  (33) 
None

>  <original ID>  (33) 
YVQITINKLAUDFA-GFCCVEGCSA-N

>  <tags>  (33) 
[]

>  <exports>  (33) 
nan

>  <method>  (33) 
None

>  <submitter_name>  (33) 
None

>  <original SMILES>  (33) 
CCO[C@H](C)C(=O)Nc1cc(C(=O)NCc2cc(Br)cs2)ccc1N(C)C

>  <ref_url>  (33) 
None

$$$$
YVQITINKLAUDFA-LBPRGKRZSA-N
     RDKit          3D

 27 28  0  0  0  0  0  0  0  0999 V2000
   19.6585   10.9556   10.3042 C   0  0  0  0  0  0  0  0  0  0  0  0
   18.7794   12.1456   10.5402 C   0  0  0  0  0  0  0  0  0  0  0  0
   18.4895   12.3489   11.8982 O   0  0  0  0  0  0  0  0  0  0  0  0
   17.1748   12.0623   12.3241 C   0  0  1  0  0  0  0  0  0  0  0  0
   16.4208   13.3531   12.4645 C   0  0  0  0  0  0  0  0  0  0  0  0
   16.4063   11.0396   11.5500 C   0  0  0  0  0  0  0  0  0  0  0  0
   16.9743   10.1122   10.9696 O   0  0  0  0  0  0  0  0  0  0  0  0
   15.0269   11.1040   11.6689 N   0  0  0  0  0  0  0  0  0  0  0  0
   14.6254    9.7716   11.6048 C   0  0  0  0  0  0  0  0  0  0  0  0
   14.9670    8.9820   12.6715 C   0  0  0  0  0  0  0  0  0  0  0  0
   15.1640    7.6495   12.3861 C   0  0  0  0  0  0  0  0  0  0  0  0
   15.6224    6.7395   13.4013 C   0  0  0  0  0  0  0  0  0  0  0  0
   16.2376    5.7447   13.0454 O   0  0  0  0  0  0  0  0  0  0  0  0
   15.1484    6.9860   14.6665 N   0  0  0  0  0  0  0  0  0  0  0  0
   14.3718    5.9112   15.2182 C   0  0  0  0  0  0  0  0  0  0  0  0
   12.9815    6.0690   14.6706 C   0  0  0  0  0  0  0  0  0  0  0  0
   12.4342    5.4954   13.5387 C   0  0  0  0  0  0  0  0  0  0  0  0
   11.0900    5.8911   13.3666 C   0  0  0  0  0  0  0  0  0  0  0  0
   10.0527    5.2817   11.9405 Br  0  0  0  0  0  0  0  0  0  0  0  0
   10.6352    6.7498   14.3314 C   0  0  0  0  0  0  0  0  0  0  0  0
   11.8712    7.1254   15.4455 S   0  0  0  0  0  0  0  0  0  0  0  0
   14.9488    7.0776   11.1338 C   0  0  0  0  0  0  0  0  0  0  0  0
   14.5467    7.8739   10.1087 C   0  0  0  0  0  0  0  0  0  0  0  0
   14.3789    9.2380   10.3326 C   0  0  0  0  0  0  0  0  0  0  0  0
   14.0048   10.1324    9.2841 N   0  0  0  0  0  0  0  0  0  0  0  0
   12.9079    9.4578    8.5972 C   0  0  0  0  0  0  0  0  0  0  0  0
   15.2446   10.3478    8.5559 C   0  0  0  0  0  0  0  0  0  0  0  0
  1  2  1  0
  2  3  1  0
  3  4  1  0
  4  5  1  6
  4  6  1  0
  6  7  2  0
  6  8  1  0
  8  9  1  0
  9 10  2  0
 10 11  1  0
 11 12  1  0
 12 13  2  0
 12 14  1  0
 14 15  1  0
 15 16  1  0
 16 17  2  0
 17 18  1  0
 18 19  1  0
 18 20  2  0
 20 21  1  0
 11 22  2  0
 22 23  1  0
 23 24  2  0
 24 25  1  0
 25 26  1  0
 25 27  1  0
 24  9  1  0
 21 16  1  0
M  END
>  <HIPPO ID>  (34) 
16482

>  <alias>  (34) 
None

>  <ref_mols>  (34) 
c0692a,c0892a

>  <submitter_email>  (34) 
None

>  <ref_pdb>  (34) 
c0270a

>  <inchikey>  (34) 
YVQITINKLAUDFA-LBPRGKRZSA-N

>  <generation_date>  (34) 
None

>  <original ID>  (34) 
YVQITINKLAUDFA-LBPRGKRZSA-N

>  <tags>  (34) 
[]

>  <exports>  (34) 
nan

>  <method>  (34) 
None

>  <submitter_name>  (34) 
None

>  <original SMILES>  (34) 
CCO[C@@H](C)C(=O)Nc1cc(C(=O)NCc2cc(Br)cs2)ccc1N(C)C

>  <ref_url>  (34) 
None

$$$$
IJZVVJFGXVPCTE-UHFFFAOYSA-N
     RDKit          3D

 27 28  0  0  0  0  0  0  0  0999 V2000
   13.6548   12.5758   11.5749 C   0  0  0  0  0  0  0  0  0  0  0  0
   14.9490   11.9591   11.6951 N   0  0  0  0  0  0  0  0  0  0  0  0
   16.0780   12.7813   12.0696 C   0  0  0  0  0  0  0  0  0  0  0  0
   14.9017   10.7762   12.4432 C   0  0  0  0  0  0  0  0  0  0  0  0
   15.1509   10.7036   13.8052 C   0  0  0  0  0  0  0  0  0  0  0  0
   15.3742    9.4565   14.3726 C   0  0  0  0  0  0  0  0  0  0  0  0
   15.2686    8.3193   13.5663 C   0  0  0  0  0  0  0  0  0  0  0  0
   15.7277    6.9980   13.9086 C   0  0  0  0  0  0  0  0  0  0  0  0
   16.2593    6.2750   13.0751 O   0  0  0  0  0  0  0  0  0  0  0  0
   15.3526    6.6077   15.1568 N   0  0  0  0  0  0  0  0  0  0  0  0
   14.3932    5.5308   15.1445 C   0  0  0  0  0  0  0  0  0  0  0  0
   13.0811    5.9430   14.5548 C   0  0  0  0  0  0  0  0  0  0  0  0
   12.5012    5.4733   13.3924 C   0  0  0  0  0  0  0  0  0  0  0  0
   11.1722    5.9295   13.2684 C   0  0  0  0  0  0  0  0  0  0  0  0
   10.0623    5.3438   11.8871 Br  0  0  0  0  0  0  0  0  0  0  0  0
   10.7865    6.7938   14.2582 C   0  0  0  0  0  0  0  0  0  0  0  0
   12.0615    7.0643   15.3625 S   0  0  0  0  0  0  0  0  0  0  0  0
   14.7963    8.3415   12.2958 C   0  0  0  0  0  0  0  0  0  0  0  0
   14.6993    9.5725   11.7542 C   0  0  0  0  0  0  0  0  0  0  0  0
   14.5761    9.5534   10.3989 N   0  0  0  0  0  0  0  0  0  0  0  0
   15.6695   10.0711    9.7636 C   0  0  0  0  0  0  0  0  0  0  0  0
   16.7394   10.4352   10.2297 O   0  0  0  0  0  0  0  0  0  0  0  0
   15.3713    9.9480    8.3607 C   0  0  0  0  0  0  0  0  0  0  0  0
   16.1905    8.8506    8.0279 O   0  0  0  0  0  0  0  0  0  0  0  0
   17.4031    9.3282    7.4648 C   0  0  0  0  0  0  0  0  0  0  0  0
   18.2476    8.5250    6.7985 F   0  0  0  0  0  0  0  0  0  0  0  0
   17.1990   10.0005    6.3370 F   0  0  0  0  0  0  0  0  0  0  0  0
  1  2  1  0
  2  3  1  0
  2  4  1  0
  4  5  2  0
  5  6  1  0
  6  7  2  0
  7  8  1  0
  8  9  2  0
  8 10  1  0
 10 11  1  0
 11 12  1  0
 12 13  2  0
 13 14  1  0
 14 15  1  0
 14 16  2  0
 16 17  1  0
  7 18  1  0
 18 19  2  0
 19 20  1  0
 20 21  1  0
 21 22  2  0
 21 23  1  0
 23 24  1  0
 24 25  1  0
 25 26  1  0
 25 27  1  0
 19  4  1  0
 17 12  1  0
M  END
>  <HIPPO ID>  (35) 
16530

>  <alias>  (35) 
None

>  <ref_mols>  (35) 
c0692a,c0892a

>  <submitter_email>  (35) 
None

>  <ref_pdb>  (35) 
c0270a

>  <inchikey>  (35) 
IJZVVJFGXVPCTE-UHFFFAOYSA-N

>  <generation_date>  (35) 
None

>  <original ID>  (35) 
IJZVVJFGXVPCTE-UHFFFAOYSA-N

>  <tags>  (35) 
[]

>  <exports>  (35) 
nan

>  <method>  (35) 
None

>  <submitter_name>  (35) 
None

>  <original SMILES>  (35) 
CN(C)c1ccc(C(=O)NCc2cc(Br)cs2)cc1NC(=O)COC(F)F

>  <ref_url>  (35) 
None

$$$$
DOIXDZNZWUKORN-UHFFFAOYSA-N
     RDKit          3D

 27 29  0  0  0  0  0  0  0  0999 V2000
   13.4298    8.7220    8.5118 C   0  0  0  0  0  0  0  0  0  0  0  0
   13.8626    7.7933    9.5192 N   0  0  0  0  0  0  0  0  0  0  0  0
   13.0627    6.7870    9.8772 N   0  0  0  0  0  0  0  0  0  0  0  0
   13.7931    6.0881   10.7376 C   0  0  0  0  0  0  0  0  0  0  0  0
   15.0069    6.7071   11.0417 C   0  0  0  0  0  0  0  0  0  0  0  0
   15.0456    7.7781   10.1887 C   0  0  0  0  0  0  0  0  0  0  0  0
   16.0883    8.7430    9.9190 C   0  0  0  0  0  0  0  0  0  0  0  0
   15.4893    9.9366   10.2877 O   0  0  0  0  0  0  0  0  0  0  0  0
   16.3822   10.9651    9.9857 C   0  0  0  0  0  0  0  0  0  0  0  0
   16.1736   11.8706   11.1333 C   0  0  0  0  0  0  0  0  0  0  0  0
   17.1207   12.2020   11.8363 O   0  0  0  0  0  0  0  0  0  0  0  0
   14.8243   12.1978   11.3368 N   0  0  0  0  0  0  0  0  0  0  0  0
   14.5320   12.0240   12.6987 C   0  0  0  0  0  0  0  0  0  0  0  0
   14.7818   13.0467   13.6013 C   0  0  0  0  0  0  0  0  0  0  0  0
   15.0179   12.7122   14.9266 C   0  0  0  0  0  0  0  0  0  0  0  0
   15.0524   11.3679   15.3071 C   0  0  0  0  0  0  0  0  0  0  0  0
   14.7711   10.3505   14.3862 C   0  0  0  0  0  0  0  0  0  0  0  0
   14.9239    8.9441   14.8012 C   0  0  0  0  0  0  0  0  0  0  0  0
   15.4521    8.7170   15.8817 O   0  0  0  0  0  0  0  0  0  0  0  0
   14.4456    7.9459   13.9894 N   0  0  0  0  0  0  0  0  0  0  0  0
   14.1973    6.6296   14.5301 C   0  0  0  0  0  0  0  0  0  0  0  0
   12.7653    6.2801   14.2598 C   0  0  0  0  0  0  0  0  0  0  0  0
   12.2795    5.2347   13.5055 C   0  0  0  0  0  0  0  0  0  0  0  0
   10.8636    5.2415   13.3834 C   0  0  0  0  0  0  0  0  0  0  0  0
   10.3002    6.2601   14.1161 C   0  0  0  0  0  0  0  0  0  0  0  0
   11.4794    7.1922   14.9328 S   0  0  0  0  0  0  0  0  0  0  0  0
   14.4447   10.6914   13.0966 C   0  0  0  0  0  0  0  0  0  0  0  0
  1  2  1  0
  2  3  1  0
  3  4  2  0
  4  5  1  0
  5  6  2  0
  6  7  1  0
  7  8  1  0
  8  9  1  0
  9 10  1  0
 10 11  2  0
 10 12  1  0
 12 13  1  0
 13 14  2  0
 14 15  1  0
 15 16  2  0
 16 17  1  0
 17 18  1  0
 18 19  2  0
 18 20  1  0
 20 21  1  0
 21 22  1  0
 22 23  2  0
 23 24  1  0
 24 25  2  0
 25 26  1  0
 17 27  2  0
  6  2  1  0
 27 13  1  0
 26 22  1  0
M  END
>  <HIPPO ID>  (36) 
16633

>  <alias>  (36) 
None

>  <ref_mols>  (36) 
c0692a,c0892a

>  <submitter_email>  (36) 
None

>  <ref_pdb>  (36) 
c0270a

>  <inchikey>  (36) 
DOIXDZNZWUKORN-UHFFFAOYSA-N

>  <generation_date>  (36) 
None

>  <original ID>  (36) 
DOIXDZNZWUKORN-UHFFFAOYSA-N

>  <tags>  (36) 
[]

>  <exports>  (36) 
nan

>  <method>  (36) 
None

>  <submitter_name>  (36) 
None

>  <original SMILES>  (36) 
Cn1nccc1COCC(=O)Nc1cccc(C(=O)NCc2cccs2)c1

>  <ref_url>  (36) 
None

$$$$
QWQIKAAAQZNWBU-ZDUSSCGKSA-N
     RDKit          3D

 27 29  0  0  0  0  0  0  0  0999 V2000
   13.0984   13.1201   11.6342 O   0  0  0  0  0  0  0  0  0  0  0  0
   14.0573   12.9735   12.3890 C   0  0  0  0  0  0  0  0  0  0  0  0
   15.4258   12.6197   11.8372 C   0  0  0  0  0  0  0  0  0  0  0  0
   15.2128   11.7916   10.6961 O   0  0  0  0  0  0  0  0  0  0  0  0
   14.8413   10.4919   11.1135 C   0  0  0  0  0  0  0  0  0  0  0  0
   14.3341    9.6487    9.9656 C   0  0  1  0  0  0  0  0  0  0  0  0
   15.1535    9.8221    8.7640 C   0  0  0  0  0  0  0  0  0  0  0  0
   16.4124    9.1944    9.2158 C   0  0  0  0  0  0  0  0  0  0  0  0
   16.0146    8.0847   10.0550 O   0  0  0  0  0  0  0  0  0  0  0  0
   14.6049    8.1988   10.2836 C   0  0  0  0  0  0  0  0  0  0  0  0
   13.9188   13.0632   13.7605 N   0  0  0  0  0  0  0  0  0  0  0  0
   14.5491   12.1198   14.5866 C   0  0  0  0  0  0  0  0  0  0  0  0
   15.3966   12.5468   15.5924 C   0  0  0  0  0  0  0  0  0  0  0  0
   16.1218   11.5924   16.3079 C   0  0  0  0  0  0  0  0  0  0  0  0
   16.0503   10.2340   15.9728 C   0  0  0  0  0  0  0  0  0  0  0  0
   16.9842    9.1117   16.8719 Cl  0  0  0  0  0  0  0  0  0  0  0  0
   15.1847    9.8196   14.9740 C   0  0  0  0  0  0  0  0  0  0  0  0
   15.1510    8.4398   14.4543 C   0  0  0  0  0  0  0  0  0  0  0  0
   16.1396    7.9448   13.9359 O   0  0  0  0  0  0  0  0  0  0  0  0
   13.9324    7.8210   14.5507 N   0  0  0  0  0  0  0  0  0  0  0  0
   13.7818    6.4350   14.1731 C   0  0  0  0  0  0  0  0  0  0  0  0
   12.3414    6.1593   13.8716 C   0  0  0  0  0  0  0  0  0  0  0  0
   11.8292    5.4085   12.8313 C   0  0  0  0  0  0  0  0  0  0  0  0
   10.4094    5.3074   12.8803 C   0  0  0  0  0  0  0  0  0  0  0  0
    9.8790    5.9918   13.9488 C   0  0  0  0  0  0  0  0  0  0  0  0
   11.0847    6.7612   14.8798 S   0  0  0  0  0  0  0  0  0  0  0  0
   14.3747   10.7587   14.3501 C   0  0  0  0  0  0  0  0  0  0  0  0
  1  2  2  0
  2  3  1  0
  3  4  1  0
  4  5  1  0
  6  5  1  1
  6  7  1  0
  7  8  1  0
  8  9  1  0
  9 10  1  0
  2 11  1  0
 11 12  1  0
 12 13  2  0
 13 14  1  0
 14 15  2  0
 15 16  1  0
 15 17  1  0
 17 18  1  0
 18 19  2  0
 18 20  1  0
 20 21  1  0
 21 22  1  0
 22 23  2  0
 23 24  1  0
 24 25  2  0
 25 26  1  0
 17 27  2  0
 10  6  1  0
 27 12  1  0
 26 22  1  0
M  END
>  <HIPPO ID>  (37) 
16774

>  <alias>  (37) 
None

>  <ref_mols>  (37) 
c0692a,c0892a

>  <submitter_email>  (37) 
None

>  <ref_pdb>  (37) 
c0270a

>  <inchikey>  (37) 
QWQIKAAAQZNWBU-ZDUSSCGKSA-N

>  <generation_date>  (37) 
None

>  <original ID>  (37) 
QWQIKAAAQZNWBU-ZDUSSCGKSA-N

>  <tags>  (37) 
[]

>  <exports>  (37) 
nan

>  <method>  (37) 
None

>  <submitter_name>  (37) 
None

>  <original SMILES>  (37) 
O=C(COC[C@H]1CCOC1)Nc1ccc(Cl)c(C(=O)NCc2cccs2)c1

>  <ref_url>  (37) 
None

$$$$
HFGKAEMQYOTTLU-KRWDZBQOSA-N
     RDKit          3D

 28 30  0  0  0  0  0  0  0  0999 V2000
   16.9112   13.9238   12.4884 C   0  0  0  0  0  0  0  0  0  0  0  0
   16.8189   12.7906   11.5694 N   0  0  0  0  0  0  0  0  0  0  0  0
   18.1719   12.3877   11.1362 C   0  0  0  0  0  0  0  0  0  0  0  0
   16.0558   11.7884   12.1983 C   0  0  0  0  0  0  0  0  0  0  0  0
   14.9848   12.1004   13.0517 C   0  0  0  0  0  0  0  0  0  0  0  0
   14.4618   11.1404   13.9014 C   0  0  0  0  0  0  0  0  0  0  0  0
   14.9765    9.8569   13.8713 C   0  0  0  0  0  0  0  0  0  0  0  0
   14.5034    8.8081   14.7621 C   0  0  0  0  0  0  0  0  0  0  0  0
   14.0183    9.1262   15.8359 O   0  0  0  0  0  0  0  0  0  0  0  0
   14.6411    7.5203   14.2946 N   0  0  0  0  0  0  0  0  0  0  0  0
   14.0780    6.4068   14.9954 C   0  0  0  0  0  0  0  0  0  0  0  0
   12.6740    6.2883   14.5227 C   0  0  0  0  0  0  0  0  0  0  0  0
   12.2139    5.6831   13.3732 C   0  0  0  0  0  0  0  0  0  0  0  0
   10.8231    5.8623   13.2436 C   0  0  0  0  0  0  0  0  0  0  0  0
    9.9024    5.2310   11.7610 Br  0  0  0  0  0  0  0  0  0  0  0  0
   10.2400    6.5480   14.2739 C   0  0  0  0  0  0  0  0  0  0  0  0
   11.4058    7.0227   15.4175 S   0  0  0  0  0  0  0  0  0  0  0  0
   15.9531    9.5209   12.9747 C   0  0  0  0  0  0  0  0  0  0  0  0
   16.3686   10.4411   12.0466 C   0  0  0  0  0  0  0  0  0  0  0  0
   16.8884    9.9947   10.8122 N   0  0  0  0  0  0  0  0  0  0  0  0
   16.3885    8.8198   10.3336 C   0  0  0  0  0  0  0  0  0  0  0  0
   16.4552    7.7441   10.9238 O   0  0  0  0  0  0  0  0  0  0  0  0
   15.4770    9.0980    9.1483 C   0  0  2  0  0  0  0  0  0  0  0  0
   15.1489   10.5340    9.0466 O   0  0  0  0  0  0  0  0  0  0  0  0
   14.0305   10.2576    9.9081 C   0  0  0  0  0  0  0  0  0  0  0  0
   14.0026    8.7787    9.4536 C   0  0  0  0  0  0  0  0  0  0  0  0
   13.7643    7.5368   10.3082 C   0  0  0  0  0  0  0  0  0  0  0  0
   13.1022    8.7938    8.2739 C   0  0  0  0  0  0  0  0  0  0  0  0
  1  2  1  0
  2  3  1  0
  2  4  1  0
  4  5  2  0
  5  6  1  0
  6  7  2  0
  7  8  1  0
  8  9  2  0
  8 10  1  0
 10 11  1  0
 11 12  1  0
 12 13  2  0
 13 14  1  0
 14 15  1  0
 14 16  2  0
 16 17  1  0
  7 18  1  0
 18 19  2  0
 19 20  1  0
 20 21  1  0
 21 22  2  0
 23 21  1  1
 23 24  1  0
 24 25  1  0
 25 26  1  0
 26 27  1  0
 26 28  1  0
 19  4  1  0
 26 23  1  0
 17 12  1  0
M  END
>  <HIPPO ID>  (38) 
16837

>  <alias>  (38) 
None

>  <ref_mols>  (38) 
c0692a,c0892a

>  <submitter_email>  (38) 
None

>  <ref_pdb>  (38) 
c0270a

>  <inchikey>  (38) 
HFGKAEMQYOTTLU-KRWDZBQOSA-N

>  <generation_date>  (38) 
None

>  <original ID>  (38) 
HFGKAEMQYOTTLU-KRWDZBQOSA-N

>  <tags>  (38) 
[]

>  <exports>  (38) 
nan

>  <method>  (38) 
None

>  <submitter_name>  (38) 
None

>  <original SMILES>  (38) 
CN(C)c1ccc(C(=O)NCc2cc(Br)cs2)cc1NC(=O)[C@@H]1OCC1(C)C

>  <ref_url>  (38) 
None

$$$$
HFGKAEMQYOTTLU-QGZVFWFLSA-N
     RDKit          3D

 28 30  0  0  0  0  0  0  0  0999 V2000
   16.7336   10.4359   10.2020 C   0  0  0  0  0  0  0  0  0  0  0  0
   15.8240   10.9742   11.1965 N   0  0  0  0  0  0  0  0  0  0  0  0
   14.5661   11.5458   10.7253 C   0  0  0  0  0  0  0  0  0  0  0  0
   15.6673   10.2891   12.3955 C   0  0  0  0  0  0  0  0  0  0  0  0
   15.3656   11.0927   13.5125 C   0  0  0  0  0  0  0  0  0  0  0  0
   14.9657   10.5214   14.7042 C   0  0  0  0  0  0  0  0  0  0  0  0
   14.9791    9.1362   14.8074 C   0  0  0  0  0  0  0  0  0  0  0  0
   13.7756    8.5181   15.3720 C   0  0  0  0  0  0  0  0  0  0  0  0
   12.7004    8.9913   15.0353 O   0  0  0  0  0  0  0  0  0  0  0  0
   13.8810    7.3865   16.1335 N   0  0  0  0  0  0  0  0  0  0  0  0
   12.7342    7.0040   16.9333 C   0  0  0  0  0  0  0  0  0  0  0  0
   11.4589    6.7918   16.1491 C   0  0  0  0  0  0  0  0  0  0  0  0
   11.2153    6.0336   15.0178 C   0  0  0  0  0  0  0  0  0  0  0  0
    9.8418    5.9481   14.6984 C   0  0  0  0  0  0  0  0  0  0  0  0
    9.2070    4.7694   13.3755 Br  0  0  0  0  0  0  0  0  0  0  0  0
    9.0614    6.7503   15.4843 C   0  0  0  0  0  0  0  0  0  0  0  0
    9.9944    7.5061   16.7003 S   0  0  0  0  0  0  0  0  0  0  0  0
   15.5966    8.3548   13.8486 C   0  0  0  0  0  0  0  0  0  0  0  0
   15.7645    8.8949   12.5796 C   0  0  0  0  0  0  0  0  0  0  0  0
   15.8946    7.9205   11.5515 N   0  0  0  0  0  0  0  0  0  0  0  0
   14.8260    7.7005   10.6875 C   0  0  0  0  0  0  0  0  0  0  0  0
   14.1485    8.5898   10.1727 O   0  0  0  0  0  0  0  0  0  0  0  0
   14.5375    6.1850   10.4620 C   0  0  1  0  0  0  0  0  0  0  0  0
   15.6701    5.2390   10.7260 O   0  0  0  0  0  0  0  0  0  0  0  0
   14.6356    4.2166   10.9737 C   0  0  0  0  0  0  0  0  0  0  0  0
   13.7313    5.3531   11.5036 C   0  0  0  0  0  0  0  0  0  0  0  0
   12.2487    5.2903   11.2538 C   0  0  0  0  0  0  0  0  0  0  0  0
   14.0323    5.5229   12.9792 C   0  0  0  0  0  0  0  0  0  0  0  0
  1  2  1  0
  2  3  1  0
  2  4  1  0
  4  5  2  0
  5  6  1  0
  6  7  2  0
  7  8  1  0
  8  9  2  0
  8 10  1  0
 10 11  1  0
 11 12  1  0
 12 13  2  0
 13 14  1  0
 14 15  1  0
 14 16  2  0
 16 17  1  0
  7 18  1  0
 18 19  2  0
 19 20  1  0
 20 21  1  0
 21 22  2  0
 23 21  1  1
 23 24  1  0
 24 25  1  0
 25 26  1  0
 26 27  1  0
 26 28  1  0
 19  4  1  0
 26 23  1  0
 17 12  1  0
M  END
>  <HIPPO ID>  (39) 
16838

>  <alias>  (39) 
None

>  <ref_mols>  (39) 
c0692a,c0892a

>  <submitter_email>  (39) 
None

>  <ref_pdb>  (39) 
c0270a

>  <inchikey>  (39) 
HFGKAEMQYOTTLU-QGZVFWFLSA-N

>  <generation_date>  (39) 
None

>  <original ID>  (39) 
HFGKAEMQYOTTLU-QGZVFWFLSA-N

>  <tags>  (39) 
[]

>  <exports>  (39) 
nan

>  <method>  (39) 
None

>  <submitter_name>  (39) 
None

>  <original SMILES>  (39) 
CN(C)c1ccc(C(=O)NCc2cc(Br)cs2)cc1NC(=O)[C@H]1OCC1(C)C

>  <ref_url>  (39) 
None

$$$$
UBQVYEUYNWJPTR-UHFFFAOYSA-N
     RDKit          3D

 28 30  0  0  0  0  0  0  0  0999 V2000
   15.9229    8.3552   11.9791 C   0  0  0  0  0  0  0  0  0  0  0  0
   15.0467    8.0967   10.8795 N   0  0  0  0  0  0  0  0  0  0  0  0
   14.3511    6.9512   10.9307 N   0  0  0  0  0  0  0  0  0  0  0  0
   13.5847    7.0057    9.8491 C   0  0  0  0  0  0  0  0  0  0  0  0
   13.7967    8.1785    9.1074 C   0  0  0  0  0  0  0  0  0  0  0  0
   14.8363    8.8225    9.7429 C   0  0  0  0  0  0  0  0  0  0  0  0
   15.6507    9.9675    9.2730 C   0  0  0  0  0  0  0  0  0  0  0  0
   15.7682   10.9849   10.2572 O   0  0  0  0  0  0  0  0  0  0  0  0
   14.5601   11.6510   10.5881 C   0  0  0  0  0  0  0  0  0  0  0  0
   14.5205   11.5824   12.0732 C   0  0  0  0  0  0  0  0  0  0  0  0
   14.0019   10.6298   12.6518 O   0  0  0  0  0  0  0  0  0  0  0  0
   15.2071   12.6072   12.7107 N   0  0  0  0  0  0  0  0  0  0  0  0
   15.4939   12.4546   14.0692 C   0  0  0  0  0  0  0  0  0  0  0  0
   15.3998   13.5216   14.9429 C   0  0  0  0  0  0  0  0  0  0  0  0
   15.3863   13.2440   16.3083 C   0  0  0  0  0  0  0  0  0  0  0  0
   15.4096   11.9142   16.7691 C   0  0  0  0  0  0  0  0  0  0  0  0
   15.1632   11.6558   18.4443 Cl  0  0  0  0  0  0  0  0  0  0  0  0
   15.5378   10.8625   15.8709 C   0  0  0  0  0  0  0  0  0  0  0  0
   15.3402    9.4301   16.1964 C   0  0  0  0  0  0  0  0  0  0  0  0
   15.9598    8.9022   17.1070 O   0  0  0  0  0  0  0  0  0  0  0  0
   14.4308    8.7513   15.3963 N   0  0  0  0  0  0  0  0  0  0  0  0
   14.2648    7.3200   15.5439 C   0  0  0  0  0  0  0  0  0  0  0  0
   13.0530    6.8363   14.8077 C   0  0  0  0  0  0  0  0  0  0  0  0
   12.9975    5.9739   13.7284 C   0  0  0  0  0  0  0  0  0  0  0  0
   11.6628    5.6887   13.3143 C   0  0  0  0  0  0  0  0  0  0  0  0
   10.7365    6.3401   14.0952 C   0  0  0  0  0  0  0  0  0  0  0  0
   11.4762    7.2738   15.3209 S   0  0  0  0  0  0  0  0  0  0  0  0
   15.7292   11.1659   14.5431 C   0  0  0  0  0  0  0  0  0  0  0  0
  1  2  1  0
  2  3  1  0
  3  4  2  0
  4  5  1  0
  5  6  2  0
  6  7  1  0
  7  8  1  0
  8  9  1  0
  9 10  1  0
 10 11  2  0
 10 12  1  0
 12 13  1  0
 13 14  2  0
 14 15  1  0
 15 16  2  0
 16 17  1  0
 16 18  1  0
 18 19  1  0
 19 20  2  0
 19 21  1  0
 21 22  1  0
 22 23  1  0
 23 24  2  0
 24 25  1  0
 25 26  2  0
 26 27  1  0
 18 28  2  0
  6  2  1  0
 28 13  1  0
 27 23  1  0
M  END
>  <HIPPO ID>  (40) 
16841

>  <alias>  (40) 
None

>  <ref_mols>  (40) 
c0692a,c0892a

>  <submitter_email>  (40) 
None

>  <ref_pdb>  (40) 
c0270a

>  <inchikey>  (40) 
UBQVYEUYNWJPTR-UHFFFAOYSA-N

>  <generation_date>  (40) 
None

>  <original ID>  (40) 
UBQVYEUYNWJPTR-UHFFFAOYSA-N

>  <tags>  (40) 
[]

>  <exports>  (40) 
nan

>  <method>  (40) 
None

>  <submitter_name>  (40) 
None

>  <original SMILES>  (40) 
Cn1nccc1COCC(=O)Nc1ccc(Cl)c(C(=O)NCc2cccs2)c1

>  <ref_url>  (40) 
None

$$$$
WMJDBNBGFSYJCB-SFHVURJKSA-N
     RDKit          3D

 28 29  0  0  0  0  0  0  0  0999 V2000
   13.5684    7.8863    8.9012 C   0  0  0  0  0  0  0  0  0  0  0  0
   13.5562    6.5987    9.7112 C   0  0  0  0  0  0  0  0  0  0  0  0
   13.4281    6.8593   11.1991 C   0  0  0  0  0  0  0  0  0  0  0  0
   14.5142    6.2081   12.0139 C   0  0  2  0  0  0  0  0  0  0  0  0
   14.1336    6.2182   13.3835 O   0  0  0  0  0  0  0  0  0  0  0  0
   14.8083    5.1831   14.1025 C   0  0  0  0  0  0  0  0  0  0  0  0
   15.8649    6.8773   11.6982 C   0  0  0  0  0  0  0  0  0  0  0  0
   16.8342    6.1329   11.5406 O   0  0  0  0  0  0  0  0  0  0  0  0
   15.9655    8.2501   11.5380 N   0  0  0  0  0  0  0  0  0  0  0  0
   15.6716    9.2168   12.5476 C   0  0  0  0  0  0  0  0  0  0  0  0
   15.5083    8.7325   13.8349 C   0  0  0  0  0  0  0  0  0  0  0  0
   15.0852    9.5519   14.8619 C   0  0  0  0  0  0  0  0  0  0  0  0
   14.3589    8.9292   15.9742 C   0  0  0  0  0  0  0  0  0  0  0  0
   14.5111    9.3088   17.1218 O   0  0  0  0  0  0  0  0  0  0  0  0
   13.4418    7.9881   15.5681 N   0  0  0  0  0  0  0  0  0  0  0  0
   12.6032    7.2739   16.4877 C   0  0  0  0  0  0  0  0  0  0  0  0
   11.3493    6.9004   15.7609 C   0  0  0  0  0  0  0  0  0  0  0  0
   11.1951    6.0297   14.6983 C   0  0  0  0  0  0  0  0  0  0  0  0
    9.8420    5.8629   14.3409 C   0  0  0  0  0  0  0  0  0  0  0  0
    9.3456    4.6361   13.0137 Br  0  0  0  0  0  0  0  0  0  0  0  0
    8.9879    6.6422   15.0733 C   0  0  0  0  0  0  0  0  0  0  0  0
    9.8391    7.5496   16.2446 S   0  0  0  0  0  0  0  0  0  0  0  0
   15.1667   10.9191   14.7411 C   0  0  0  0  0  0  0  0  0  0  0  0
   15.4840   11.4381   13.4959 C   0  0  0  0  0  0  0  0  0  0  0  0
   15.5900   10.6204   12.3384 C   0  0  0  0  0  0  0  0  0  0  0  0
   15.5030   11.3006   11.0936 N   0  0  0  0  0  0  0  0  0  0  0  0
   14.3951   12.2789   11.1252 C   0  0  0  0  0  0  0  0  0  0  0  0
   15.5738   10.5064    9.8838 C   0  0  0  0  0  0  0  0  0  0  0  0
  1  2  1  0
  2  3  1  0
  4  3  1  6
  4  5  1  0
  5  6  1  0
  4  7  1  0
  7  8  2  0
  7  9  1  0
  9 10  1  0
 10 11  2  0
 11 12  1  0
 12 13  1  0
 13 14  2  0
 13 15  1  0
 15 16  1  0
 16 17  1  0
 17 18  2  0
 18 19  1  0
 19 20  1  0
 19 21  2  0
 21 22  1  0
 12 23  2  0
 23 24  1  0
 24 25  2  0
 25 26  1  0
 26 27  1  0
 26 28  1  0
 25 10  1  0
 22 17  1  0
M  END
>  <HIPPO ID>  (41) 
16845

>  <alias>  (41) 
None

>  <ref_mols>  (41) 
c0692a,c0892a

>  <submitter_email>  (41) 
None

>  <ref_pdb>  (41) 
c0270a

>  <inchikey>  (41) 
WMJDBNBGFSYJCB-SFHVURJKSA-N

>  <generation_date>  (41) 
None

>  <original ID>  (41) 
WMJDBNBGFSYJCB-SFHVURJKSA-N

>  <tags>  (41) 
[]

>  <exports>  (41) 
nan

>  <method>  (41) 
None

>  <submitter_name>  (41) 
None

>  <original SMILES>  (41) 
CCC[C@H](OC)C(=O)Nc1cc(C(=O)NCc2cc(Br)cs2)ccc1N(C)C

>  <ref_url>  (41) 
None

$$$$
WMJDBNBGFSYJCB-GOSISDBHSA-N
     RDKit          3D

 28 29  0  0  0  0  0  0  0  0999 V2000
   13.9148    5.6953   10.2576 C   0  0  0  0  0  0  0  0  0  0  0  0
   14.4772    6.6532   11.2945 C   0  0  0  0  0  0  0  0  0  0  0  0
   14.4535    8.1154   10.8533 C   0  0  0  0  0  0  0  0  0  0  0  0
   15.7464    8.6056   10.2012 C   0  0  1  0  0  0  0  0  0  0  0  0
   15.4601    8.8058    8.8314 O   0  0  0  0  0  0  0  0  0  0  0  0
   14.5415    9.8579    8.6370 C   0  0  0  0  0  0  0  0  0  0  0  0
   16.5749    9.8367   10.6402 C   0  0  0  0  0  0  0  0  0  0  0  0
   17.7281   10.0508   10.2744 O   0  0  0  0  0  0  0  0  0  0  0  0
   15.9733   10.8139   11.3477 N   0  0  0  0  0  0  0  0  0  0  0  0
   15.6388   10.6777   12.7000 C   0  0  0  0  0  0  0  0  0  0  0  0
   15.7881    9.4750   13.3692 C   0  0  0  0  0  0  0  0  0  0  0  0
   15.4137    9.3656   14.6900 C   0  0  0  0  0  0  0  0  0  0  0  0
   15.2913    7.9790   15.1885 C   0  0  0  0  0  0  0  0  0  0  0  0
   15.8868    7.0654   14.6274 O   0  0  0  0  0  0  0  0  0  0  0  0
   14.3598    7.7900   16.1796 N   0  0  0  0  0  0  0  0  0  0  0  0
   13.7439    6.4975   16.3328 C   0  0  0  0  0  0  0  0  0  0  0  0
   12.4862    6.5018   15.5152 C   0  0  0  0  0  0  0  0  0  0  0  0
   12.2620    5.9072   14.2886 C   0  0  0  0  0  0  0  0  0  0  0  0
   10.9385    6.1191   13.8385 C   0  0  0  0  0  0  0  0  0  0  0  0
   10.3323    5.4517   12.1944 Br  0  0  0  0  0  0  0  0  0  0  0  0
   10.1699    6.8360   14.7174 C   0  0  0  0  0  0  0  0  0  0  0  0
   11.0614    7.2485   16.1143 S   0  0  0  0  0  0  0  0  0  0  0  0
   15.0600   10.5120   15.3902 C   0  0  0  0  0  0  0  0  0  0  0  0
   14.9638   11.7418   14.7210 C   0  0  0  0  0  0  0  0  0  0  0  0
   15.2000   11.8388   13.3471 C   0  0  0  0  0  0  0  0  0  0  0  0
   15.0218   13.0069   12.5823 N   0  0  0  0  0  0  0  0  0  0  0  0
   15.0535   14.2670   13.2977 C   0  0  0  0  0  0  0  0  0  0  0  0
   13.9956   12.8632   11.5427 C   0  0  0  0  0  0  0  0  0  0  0  0
  1  2  1  0
  2  3  1  0
  4  3  1  1
  4  5  1  0
  5  6  1  0
  4  7  1  0
  7  8  2  0
  7  9  1  0
  9 10  1  0
 10 11  2  0
 11 12  1  0
 12 13  1  0
 13 14  2  0
 13 15  1  0
 15 16  1  0
 16 17  1  0
 17 18  2  0
 18 19  1  0
 19 20  1  0
 19 21  2  0
 21 22  1  0
 12 23  2  0
 23 24  1  0
 24 25  2  0
 25 26  1  0
 26 27  1  0
 26 28  1  0
 25 10  1  0
 22 17  1  0
M  END
>  <HIPPO ID>  (42) 
16846

>  <alias>  (42) 
None

>  <ref_mols>  (42) 
c0692a,c0892a

>  <submitter_email>  (42) 
None

>  <ref_pdb>  (42) 
c0270a

>  <inchikey>  (42) 
WMJDBNBGFSYJCB-GOSISDBHSA-N

>  <generation_date>  (42) 
None

>  <original ID>  (42) 
WMJDBNBGFSYJCB-GOSISDBHSA-N

>  <tags>  (42) 
[]

>  <exports>  (42) 
nan

>  <method>  (42) 
None

>  <submitter_name>  (42) 
None

>  <original SMILES>  (42) 
CCC[C@@H](OC)C(=O)Nc1cc(C(=O)NCc2cc(Br)cs2)ccc1N(C)C

>  <ref_url>  (42) 
None

$$$$
GDQOMCBJKZOWGH-GOSISDBHSA-N
     RDKit          3D

 28 29  0  0  0  0  0  0  0  0999 V2000
   12.2288    5.5944   14.1139 C   0  0  0  0  0  0  0  0  0  0  0  0
   12.2518    6.9534   13.4778 C   0  0  0  0  0  0  0  0  0  0  0  0
   12.6110    7.9787   14.4099 O   0  0  0  0  0  0  0  0  0  0  0  0
   14.0113    8.2600   14.5116 C   0  0  2  0  0  0  0  0  0  0  0  0
   14.2785    8.4488   16.0063 C   0  0  0  0  0  0  0  0  0  0  0  0
   15.7278    8.7727   16.3242 C   0  0  0  0  0  0  0  0  0  0  0  0
   14.5221    9.5598   13.8096 C   0  0  0  0  0  0  0  0  0  0  0  0
   14.1490   10.6819   14.1565 O   0  0  0  0  0  0  0  0  0  0  0  0
   15.4739    9.4691   12.8124 N   0  0  0  0  0  0  0  0  0  0  0  0
   15.1945    8.5898   11.7580 C   0  0  0  0  0  0  0  0  0  0  0  0
   15.4931    7.2512   11.9516 C   0  0  0  0  0  0  0  0  0  0  0  0
   14.9981    6.2983   11.0694 C   0  0  0  0  0  0  0  0  0  0  0  0
   15.4034    4.9062   11.2715 C   0  0  0  0  0  0  0  0  0  0  0  0
   16.0218    4.3085   10.4072 O   0  0  0  0  0  0  0  0  0  0  0  0
   15.1489    4.4426   12.5235 N   0  0  0  0  0  0  0  0  0  0  0  0
   16.0006    3.4550   13.1404 C   0  0  0  0  0  0  0  0  0  0  0  0
   16.2740    4.0256   14.4880 C   0  0  0  0  0  0  0  0  0  0  0  0
   15.4328    3.9543   15.5732 C   0  0  0  0  0  0  0  0  0  0  0  0
   15.8333    4.8192   16.6068 C   0  0  0  0  0  0  0  0  0  0  0  0
   14.7867    5.1063   18.1407 Br  0  0  0  0  0  0  0  0  0  0  0  0
   17.0364    5.4246   16.3560 C   0  0  0  0  0  0  0  0  0  0  0  0
   17.6356    4.9995   14.8099 S   0  0  0  0  0  0  0  0  0  0  0  0
   14.2303    6.6659    9.9825 C   0  0  0  0  0  0  0  0  0  0  0  0
   14.0817    8.0197    9.7071 C   0  0  0  0  0  0  0  0  0  0  0  0
   14.6057    9.0128   10.5616 C   0  0  0  0  0  0  0  0  0  0  0  0
   14.5987   10.3223   10.0574 N   0  0  0  0  0  0  0  0  0  0  0  0
   15.7713   10.3860    9.1898 C   0  0  0  0  0  0  0  0  0  0  0  0
   14.3960   11.5110   10.8888 C   0  0  0  0  0  0  0  0  0  0  0  0
  1  2  1  0
  2  3  1  0
  3  4  1  0
  4  5  1  1
  5  6  1  0
  4  7  1  0
  7  8  2  0
  7  9  1  0
  9 10  1  0
 10 11  2  0
 11 12  1  0
 12 13  1  0
 13 14  2  0
 13 15  1  0
 15 16  1  0
 16 17  1  0
 17 18  2  0
 18 19  1  0
 19 20  1  0
 19 21  2  0
 21 22  1  0
 12 23  2  0
 23 24  1  0
 24 25  2  0
 25 26  1  0
 26 27  1  0
 26 28  1  0
 25 10  1  0
 22 17  1  0
M  END
>  <HIPPO ID>  (43) 
16957

>  <alias>  (43) 
None

>  <ref_mols>  (43) 
c0692a,c0892a

>  <submitter_email>  (43) 
None

>  <ref_pdb>  (43) 
c0270a

>  <inchikey>  (43) 
GDQOMCBJKZOWGH-GOSISDBHSA-N

>  <generation_date>  (43) 
None

>  <original ID>  (43) 
GDQOMCBJKZOWGH-GOSISDBHSA-N

>  <tags>  (43) 
[]

>  <exports>  (43) 
nan

>  <method>  (43) 
None

>  <submitter_name>  (43) 
None

>  <original SMILES>  (43) 
CCO[C@H](CC)C(=O)Nc1cc(C(=O)NCc2cc(Br)cs2)ccc1N(C)C

>  <ref_url>  (43) 
None

$$$$
BCVQXGUIEPWAJO-UHFFFAOYSA-N
     RDKit          3D

 28 30  0  0  0  0  0  0  0  0999 V2000
   14.9056    4.7694   10.1952 C   0  0  0  0  0  0  0  0  0  0  0  0
   15.1529    5.9319   11.1231 C   0  0  0  0  0  0  0  0  0  0  0  0
   14.4853    7.1333   10.6644 C   0  0  0  0  0  0  0  0  0  0  0  0
   13.2583    7.1145   10.1541 N   0  0  0  0  0  0  0  0  0  0  0  0
   13.2285    8.2868    9.4171 O   0  0  0  0  0  0  0  0  0  0  0  0
   14.4216    8.8857    9.6271 C   0  0  0  0  0  0  0  0  0  0  0  0
   14.7198   10.0066    8.7628 C   0  0  0  0  0  0  0  0  0  0  0  0
   14.1644   11.2206    9.2203 O   0  0  0  0  0  0  0  0  0  0  0  0
   14.5357   11.6573   10.4858 C   0  0  0  0  0  0  0  0  0  0  0  0
   15.9772   11.4522   10.9026 C   0  0  0  0  0  0  0  0  0  0  0  0
   16.7808   10.6672   10.4356 O   0  0  0  0  0  0  0  0  0  0  0  0
   16.2996   12.2307   11.9733 N   0  0  0  0  0  0  0  0  0  0  0  0
   15.7298   11.8018   13.1821 C   0  0  0  0  0  0  0  0  0  0  0  0
   15.7513   12.6715   14.2586 C   0  0  0  0  0  0  0  0  0  0  0  0
   15.3335   12.2074   15.4938 C   0  0  0  0  0  0  0  0  0  0  0  0
   14.8908   10.8935   15.6214 C   0  0  0  0  0  0  0  0  0  0  0  0
   14.7791   10.0628   14.5073 C   0  0  0  0  0  0  0  0  0  0  0  0
   14.0226    8.8235   14.6317 C   0  0  0  0  0  0  0  0  0  0  0  0
   13.0339    8.8817   15.3492 O   0  0  0  0  0  0  0  0  0  0  0  0
   14.4426    7.6803   14.0036 N   0  0  0  0  0  0  0  0  0  0  0  0
   13.9158    6.4135   14.4861 C   0  0  0  0  0  0  0  0  0  0  0  0
   12.5240    6.1291   13.9840 C   0  0  0  0  0  0  0  0  0  0  0  0
   12.1166    5.3685   12.9042 C   0  0  0  0  0  0  0  0  0  0  0  0
   10.7010    5.3108   12.7601 C   0  0  0  0  0  0  0  0  0  0  0  0
   10.0556    5.9855   13.7647 C   0  0  0  0  0  0  0  0  0  0  0  0
   11.1484    6.6815   14.8637 S   0  0  0  0  0  0  0  0  0  0  0  0
   15.2374   10.4949   13.2970 C   0  0  0  0  0  0  0  0  0  0  0  0
   15.1930    8.2639   10.4756 N   0  0  0  0  0  0  0  0  0  0  0  0
  1  2  1  0
  2  3  1  0
  3  4  2  0
  4  5  1  0
  5  6  1  0
  6  7  1  0
  7  8  1  0
  8  9  1  0
  9 10  1  0
 10 11  2  0
 10 12  1  0
 12 13  1  0
 13 14  2  0
 14 15  1  0
 15 16  2  0
 16 17  1  0
 17 18  1  0
 18 19  2  0
 18 20  1  0
 20 21  1  0
 21 22  1  0
 22 23  2  0
 23 24  1  0
 24 25  2  0
 25 26  1  0
 17 27  2  0
  6 28  2  0
 28  3  1  0
 27 13  1  0
 26 22  1  0
M  END
>  <HIPPO ID>  (44) 
17022

>  <alias>  (44) 
None

>  <ref_mols>  (44) 
c0692a,c0892a

>  <submitter_email>  (44) 
None

>  <ref_pdb>  (44) 
c0270a

>  <inchikey>  (44) 
BCVQXGUIEPWAJO-UHFFFAOYSA-N

>  <generation_date>  (44) 
None

>  <original ID>  (44) 
BCVQXGUIEPWAJO-UHFFFAOYSA-N

>  <tags>  (44) 
[]

>  <exports>  (44) 
nan

>  <method>  (44) 
None

>  <submitter_name>  (44) 
None

>  <original SMILES>  (44) 
CCc1noc(COCC(=O)Nc2cccc(C(=O)NCc3cccs3)c2)n1

>  <ref_url>  (44) 
None

$$$$
VVIUCFFHLGOWHK-MRXNPFEDSA-N
     RDKit          3D

 28 29  0  0  0  0  0  0  0  0999 V2000
   13.3554   12.8772   10.9197 C   0  0  0  0  0  0  0  0  0  0  0  0
   13.5820   12.9876   12.2963 O   0  0  0  0  0  0  0  0  0  0  0  0
   14.2686   11.8994   12.8564 C   0  0  2  0  0  0  0  0  0  0  0  0
   15.6982   12.3354   13.1710 C   0  0  0  0  0  0  0  0  0  0  0  0
   16.4684   12.8133   12.3422 O   0  0  0  0  0  0  0  0  0  0  0  0
   16.0425   12.0844   14.5008 N   0  0  0  0  0  0  0  0  0  0  0  0
   16.0322   10.7136   14.8830 C   0  0  0  0  0  0  0  0  0  0  0  0
   16.5575    9.7632   14.0037 C   0  0  0  0  0  0  0  0  0  0  0  0
   16.4510    8.3896   14.2377 C   0  0  0  0  0  0  0  0  0  0  0  0
   15.7414    7.9481   15.3193 C   0  0  0  0  0  0  0  0  0  0  0  0
   15.0933    8.9052   16.0995 C   0  0  0  0  0  0  0  0  0  0  0  0
   13.8043    8.4441   16.6182 C   0  0  0  0  0  0  0  0  0  0  0  0
   13.5614    8.4186   17.8097 O   0  0  0  0  0  0  0  0  0  0  0  0
   12.9679    8.0538   15.5935 N   0  0  0  0  0  0  0  0  0  0  0  0
   11.8392    7.1950   15.8235 C   0  0  0  0  0  0  0  0  0  0  0  0
   11.5479    6.4439   14.5633 C   0  0  0  0  0  0  0  0  0  0  0  0
   12.4223    5.8131   13.6951 C   0  0  0  0  0  0  0  0  0  0  0  0
   11.7513    5.1987   12.6023 C   0  0  0  0  0  0  0  0  0  0  0  0
   10.3871    5.3524   12.6844 C   0  0  0  0  0  0  0  0  0  0  0  0
    9.9243    6.2473   14.0597 S   0  0  0  0  0  0  0  0  0  0  0  0
   15.3182   10.2818   15.9845 C   0  0  0  0  0  0  0  0  0  0  0  0
   14.3404   10.4767   12.2767 C   0  0  0  0  0  0  0  0  0  0  0  0
   14.1596    9.4734   12.9566 O   0  0  0  0  0  0  0  0  0  0  0  0
   14.6435   10.4756   10.9692 O   0  0  0  0  0  0  0  0  0  0  0  0
   14.9736    9.3122   10.1775 C   0  0  0  0  0  0  0  0  0  0  0  0
   16.4353    9.5339    9.8434 C   0  0  0  0  0  0  0  0  0  0  0  0
   14.1488    9.4406    8.9075 C   0  0  0  0  0  0  0  0  0  0  0  0
   14.7572    7.9209   10.7722 C   0  0  0  0  0  0  0  0  0  0  0  0
  1  2  1  0
  3  2  1  6
  3  4  1  0
  4  5  2  0
  4  6  1  0
  6  7  1  0
  7  8  2  0
  8  9  1  0
  9 10  2  0
 10 11  1  0
 11 12  1  0
 12 13  2  0
 12 14  1  0
 14 15  1  0
 15 16  1  0
 16 17  2  0
 17 18  1  0
 18 19  2  0
 19 20  1  0
 11 21  2  0
  3 22  1  0
 22 23  2  0
 22 24  1  0
 24 25  1  0
 25 26  1  0
 25 27  1  0
 25 28  1  0
 21  7  1  0
 20 16  1  0
M  END
>  <HIPPO ID>  (45) 
17036

>  <alias>  (45) 
None

>  <ref_mols>  (45) 
c0692a,c0892a

>  <submitter_email>  (45) 
None

>  <ref_pdb>  (45) 
c0270a

>  <inchikey>  (45) 
VVIUCFFHLGOWHK-MRXNPFEDSA-N

>  <generation_date>  (45) 
None

>  <original ID>  (45) 
VVIUCFFHLGOWHK-MRXNPFEDSA-N

>  <tags>  (45) 
[]

>  <exports>  (45) 
nan

>  <method>  (45) 
None

>  <submitter_name>  (45) 
None

>  <original SMILES>  (45) 
CO[C@H](C(=O)Nc1cccc(C(=O)NCc2cccs2)c1)C(=O)OC(C)(C)C

>  <ref_url>  (45) 
None

$$$$
GIIVWTJGVWABOY-YEJXKQKISA-N
     RDKit          3D

 29 32  0  0  0  0  0  0  0  0999 V2000
   17.1450   12.1547   12.2227 C   0  0  0  0  0  0  0  0  0  0  0  0
   15.7986   11.6125   12.3915 N   0  0  0  0  0  0  0  0  0  0  0  0
   14.7316   12.5361   11.9920 C   0  0  0  0  0  0  0  0  0  0  0  0
   15.6482   11.0719   13.6798 C   0  0  0  0  0  0  0  0  0  0  0  0
   15.3008   11.9338   14.7503 C   0  0  0  0  0  0  0  0  0  0  0  0
   15.0870   11.4510   16.0367 C   0  0  0  0  0  0  0  0  0  0  0  0
   15.2967   10.1053   16.2625 C   0  0  0  0  0  0  0  0  0  0  0  0
   14.3999    9.3169   17.1406 C   0  0  0  0  0  0  0  0  0  0  0  0
   14.2870    9.5370   18.3316 O   0  0  0  0  0  0  0  0  0  0  0  0
   13.6828    8.3770   16.4214 N   0  0  0  0  0  0  0  0  0  0  0  0
   12.7998    7.4032   17.0003 C   0  0  0  0  0  0  0  0  0  0  0  0
   11.8117    7.0067   15.9441 C   0  0  0  0  0  0  0  0  0  0  0  0
   12.0405    6.4629   14.6892 C   0  0  0  0  0  0  0  0  0  0  0  0
   10.8290    6.2286   13.9937 C   0  0  0  0  0  0  0  0  0  0  0  0
   10.7961    5.5003   12.2622 Br  0  0  0  0  0  0  0  0  0  0  0  0
    9.7153    6.5811   14.7083 C   0  0  0  0  0  0  0  0  0  0  0  0
   10.1335    7.2086   16.2389 S   0  0  0  0  0  0  0  0  0  0  0  0
   15.9424    9.3308   15.3266 C   0  0  0  0  0  0  0  0  0  0  0  0
   15.9288    9.7284   13.9938 C   0  0  0  0  0  0  0  0  0  0  0  0
   16.0859    8.5846   13.2123 N   0  0  0  0  0  0  0  0  0  0  0  0
   15.6907    8.1136   12.0298 C   0  0  0  0  0  0  0  0  0  0  0  0
   15.8605    6.8836   11.9336 O   0  0  0  0  0  0  0  0  0  0  0  0
   15.1992    8.9251   10.8590 C   0  0  2  0  0  0  0  0  0  0  0  0
   16.3921    9.5226   10.1281 C   0  0  0  0  0  0  0  0  0  0  0  0
   15.9095    9.5086    8.7031 C   0  0  0  0  0  0  0  0  0  0  0  0
   14.5120    8.9470    8.7837 C   0  0  2  0  0  0  0  0  0  0  0  0
   13.7620   10.0326    9.4699 C   0  0  0  0  0  0  0  0  0  0  0  0
   14.2311    9.9446   10.8420 O   0  0  0  0  0  0  0  0  0  0  0  0
   14.5673    7.9405    9.8786 C   0  0  0  0  0  0  0  0  0  0  0  0
  1  2  1  0
  2  3  1  0
  2  4  1  0
  4  5  2  0
  5  6  1  0
  6  7  2  0
  7  8  1  0
  8  9  2  0
  8 10  1  0
 10 11  1  0
 11 12  1  0
 12 13  2  0
 13 14  1  0
 14 15  1  0
 14 16  2  0
 16 17  1  0
  7 18  1  0
 18 19  2  0
 19 20  1  0
 20 21  1  0
 21 22  2  0
 23 21  1  1
 23 24  1  0
 24 25  1  0
 26 25  1  1
 26 27  1  0
 27 28  1  0
 26 29  1  0
 19  4  1  0
 28 23  1  0
 17 12  1  0
 29 23  1  0
M  END
>  <HIPPO ID>  (46) 
17387

>  <alias>  (46) 
None

>  <ref_mols>  (46) 
c0692a,c0892a

>  <submitter_email>  (46) 
None

>  <ref_pdb>  (46) 
c0270a

>  <inchikey>  (46) 
GIIVWTJGVWABOY-YEJXKQKISA-N

>  <generation_date>  (46) 
None

>  <original ID>  (46) 
GIIVWTJGVWABOY-YEJXKQKISA-N

>  <tags>  (46) 
[]

>  <exports>  (46) 
nan

>  <method>  (46) 
None

>  <submitter_name>  (46) 
None

>  <original SMILES>  (46) 
CN(C)c1ccc(C(=O)NCc2cc(Br)cs2)cc1NC(=O)[C@]12CC[C@H](CO1)C2

>  <ref_url>  (46) 
None

$$$$
GIIVWTJGVWABOY-YEJXKQKISA-N
     RDKit          3D

 29 32  0  0  0  0  0  0  0  0999 V2000
   17.6400   12.5589   11.6487 C   0  0  0  0  0  0  0  0  0  0  0  0
   16.7635   11.4318   11.3368 N   0  0  0  0  0  0  0  0  0  0  0  0
   17.3225   10.4893   10.3538 C   0  0  0  0  0  0  0  0  0  0  0  0
   16.0458   10.8597   12.4054 C   0  0  0  0  0  0  0  0  0  0  0  0
   16.1352   11.3953   13.7126 C   0  0  0  0  0  0  0  0  0  0  0  0
   15.5793   10.7587   14.8225 C   0  0  0  0  0  0  0  0  0  0  0  0
   14.8953    9.5762   14.6329 C   0  0  0  0  0  0  0  0  0  0  0  0
   14.2907    8.8413   15.7576 C   0  0  0  0  0  0  0  0  0  0  0  0
   14.8025    8.8738   16.8659 O   0  0  0  0  0  0  0  0  0  0  0  0
   13.1359    8.1558   15.4633 N   0  0  0  0  0  0  0  0  0  0  0  0
   12.4817    7.3101   16.4228 C   0  0  0  0  0  0  0  0  0  0  0  0
   11.1785    6.9029   15.8170 C   0  0  0  0  0  0  0  0  0  0  0  0
   10.9700    5.9878   14.8065 C   0  0  0  0  0  0  0  0  0  0  0  0
    9.6066    5.8195   14.5051 C   0  0  0  0  0  0  0  0  0  0  0  0
    9.0648    4.5463   13.2401 Br  0  0  0  0  0  0  0  0  0  0  0  0
    8.7904    6.6421   15.2336 C   0  0  0  0  0  0  0  0  0  0  0  0
    9.6995    7.5903   16.3320 S   0  0  0  0  0  0  0  0  0  0  0  0
   14.7484    9.0680   13.3547 C   0  0  0  0  0  0  0  0  0  0  0  0
   15.2471    9.7037   12.2395 C   0  0  0  0  0  0  0  0  0  0  0  0
   14.8646    9.2795   10.9531 N   0  0  0  0  0  0  0  0  0  0  0  0
   14.2217    8.1840   10.4533 C   0  0  0  0  0  0  0  0  0  0  0  0
   13.6430    8.3515    9.3723 O   0  0  0  0  0  0  0  0  0  0  0  0
   14.1966    6.7957   11.1605 C   0  0  2  0  0  0  0  0  0  0  0  0
   13.7893    5.6887   10.1605 C   0  0  0  0  0  0  0  0  0  0  0  0
   14.5270    4.4561   10.6751 C   0  0  0  0  0  0  0  0  0  0  0  0
   15.0583    4.9442   12.0185 C   0  0  2  0  0  0  0  0  0  0  0  0
   13.8711    5.3173   12.8910 C   0  0  0  0  0  0  0  0  0  0  0  0
   13.3339    6.5264   12.2874 O   0  0  0  0  0  0  0  0  0  0  0  0
   15.5555    6.3284   11.6791 C   0  0  0  0  0  0  0  0  0  0  0  0
  1  2  1  0
  2  3  1  0
  2  4  1  0
  4  5  2  0
  5  6  1  0
  6  7  2  0
  7  8  1  0
  8  9  2  0
  8 10  1  0
 10 11  1  0
 11 12  1  0
 12 13  2  0
 13 14  1  0
 14 15  1  0
 14 16  2  0
 16 17  1  0
  7 18  1  0
 18 19  2  0
 19 20  1  0
 20 21  1  0
 21 22  2  0
 23 21  1  6
 23 24  1  0
 24 25  1  0
 26 25  1  6
 26 27  1  0
 27 28  1  0
 26 29  1  0
 19  4  1  0
 28 23  1  0
 17 12  1  0
 29 23  1  0
M  END
>  <HIPPO ID>  (47) 
17388

>  <alias>  (47) 
None

>  <ref_mols>  (47) 
c0692a,c0892a

>  <submitter_email>  (47) 
None

>  <ref_pdb>  (47) 
c0270a

>  <inchikey>  (47) 
GIIVWTJGVWABOY-YEJXKQKISA-N

>  <generation_date>  (47) 
None

>  <original ID>  (47) 
GIIVWTJGVWABOY-YEJXKQKISA-N

>  <tags>  (47) 
[]

>  <exports>  (47) 
nan

>  <method>  (47) 
None

>  <submitter_name>  (47) 
None

>  <original SMILES>  (47) 
CN(C)c1ccc(C(=O)NCc2cc(Br)cs2)cc1NC(=O)[C@]12CC[C@H](CO1)C2

>  <ref_url>  (47) 
None

$$$$
OHKGNGWJASBZEF-UHFFFAOYSA-N
     RDKit          3D

 29 31  0  0  0  0  0  0  0  0999 V2000
   12.0847    5.9661   12.0833 C   0  0  0  0  0  0  0  0  0  0  0  0
   12.2203    5.7375   13.5753 C   0  0  0  0  0  0  0  0  0  0  0  0
   12.6796    6.9044   14.3743 C   0  0  0  0  0  0  0  0  0  0  0  0
   12.3486    7.0573   15.6641 N   0  0  0  0  0  0  0  0  0  0  0  0
   13.0792    8.1761   16.0598 O   0  0  0  0  0  0  0  0  0  0  0  0
   13.7431    8.6244   14.9558 C   0  0  0  0  0  0  0  0  0  0  0  0
   14.4809    9.9159   15.0962 C   0  0  0  0  0  0  0  0  0  0  0  0
   13.8968   10.8161   14.1494 O   0  0  0  0  0  0  0  0  0  0  0  0
   14.0900   12.1986   14.3712 C   0  0  0  0  0  0  0  0  0  0  0  0
   15.4112   12.9057   14.0698 C   0  0  0  0  0  0  0  0  0  0  0  0
   15.9443   13.6257   14.9144 O   0  0  0  0  0  0  0  0  0  0  0  0
   15.9642   12.8032   12.8145 N   0  0  0  0  0  0  0  0  0  0  0  0
   15.6629   11.7110   11.9978 C   0  0  0  0  0  0  0  0  0  0  0  0
   14.7900   11.8672   10.9417 C   0  0  0  0  0  0  0  0  0  0  0  0
   14.4892   10.7575   10.1624 C   0  0  0  0  0  0  0  0  0  0  0  0
   14.8920    9.4738   10.5390 C   0  0  0  0  0  0  0  0  0  0  0  0
   14.2713    8.2054    9.5688 Cl  0  0  0  0  0  0  0  0  0  0  0  0
   15.6530    9.3029   11.6877 C   0  0  0  0  0  0  0  0  0  0  0  0
   15.9277    8.0194   12.3951 C   0  0  0  0  0  0  0  0  0  0  0  0
   16.4693    8.0679   13.4988 O   0  0  0  0  0  0  0  0  0  0  0  0
   15.5894    6.8295   11.8025 N   0  0  0  0  0  0  0  0  0  0  0  0
   16.2929    5.6245   12.1271 C   0  0  0  0  0  0  0  0  0  0  0  0
   15.7579    4.8018   13.2323 C   0  0  0  0  0  0  0  0  0  0  0  0
   15.3677    3.4852   13.1274 C   0  0  0  0  0  0  0  0  0  0  0  0
   15.3105    2.8584   14.3945 C   0  0  0  0  0  0  0  0  0  0  0  0
   15.4964    3.7416   15.4307 C   0  0  0  0  0  0  0  0  0  0  0  0
   15.8505    5.3064   14.8669 S   0  0  0  0  0  0  0  0  0  0  0  0
   16.1445   10.4533   12.3272 C   0  0  0  0  0  0  0  0  0  0  0  0
   13.5129    7.8777   13.8977 N   0  0  0  0  0  0  0  0  0  0  0  0
  1  2  1  0
  2  3  1  0
  3  4  2  0
  4  5  1  0
  5  6  1  0
  6  7  1  0
  7  8  1  0
  8  9  1  0
  9 10  1  0
 10 11  2  0
 10 12  1  0
 12 13  1  0
 13 14  2  0
 14 15  1  0
 15 16  2  0
 16 17  1  0
 16 18  1  0
 18 19  1  0
 19 20  2  0
 19 21  1  0
 21 22  1  0
 22 23  1  0
 23 24  2  0
 24 25  1  0
 25 26  2  0
 26 27  1  0
 18 28  2  0
  6 29  2  0
 29  3  1  0
 28 13  1  0
 27 23  1  0
M  END
>  <HIPPO ID>  (48) 
17420

>  <alias>  (48) 
None

>  <ref_mols>  (48) 
c0692a,c0892a

>  <submitter_email>  (48) 
None

>  <ref_pdb>  (48) 
c0270a

>  <inchikey>  (48) 
OHKGNGWJASBZEF-UHFFFAOYSA-N

>  <generation_date>  (48) 
None

>  <original ID>  (48) 
OHKGNGWJASBZEF-UHFFFAOYSA-N

>  <tags>  (48) 
[]

>  <exports>  (48) 
nan

>  <method>  (48) 
None

>  <submitter_name>  (48) 
None

>  <original SMILES>  (48) 
CCc1noc(COCC(=O)Nc2ccc(Cl)c(C(=O)NCc3cccs3)c2)n1

>  <ref_url>  (48) 
None

$$$$
GDXOPEMUANKWPK-MRXNPFEDSA-N
     RDKit          3D

 29 30  0  0  0  0  0  0  0  0999 V2000
   13.2398    9.2329    8.5810 C   0  0  0  0  0  0  0  0  0  0  0  0
   13.6118    8.2741    9.5312 O   0  0  0  0  0  0  0  0  0  0  0  0
   14.5856    8.7375   10.4729 C   0  0  2  0  0  0  0  0  0  0  0  0
   15.8832    9.3057    9.9388 C   0  0  0  0  0  0  0  0  0  0  0  0
   16.2095    9.0740    8.7785 O   0  0  0  0  0  0  0  0  0  0  0  0
   16.6220   10.2261   10.6415 N   0  0  0  0  0  0  0  0  0  0  0  0
   16.3172   10.8210   11.8724 C   0  0  0  0  0  0  0  0  0  0  0  0
   16.5195   12.1829   12.0345 C   0  0  0  0  0  0  0  0  0  0  0  0
   16.0111   12.8277   13.1584 C   0  0  0  0  0  0  0  0  0  0  0  0
   15.3592   12.0982   14.1596 C   0  0  0  0  0  0  0  0  0  0  0  0
   14.6621   13.0136   15.4325 Cl  0  0  0  0  0  0  0  0  0  0  0  0
   15.2873   10.7067   14.0765 C   0  0  0  0  0  0  0  0  0  0  0  0
   14.7262    9.8465   15.1558 C   0  0  0  0  0  0  0  0  0  0  0  0
   14.9993   10.0697   16.3276 O   0  0  0  0  0  0  0  0  0  0  0  0
   13.9214    8.7909   14.7642 N   0  0  0  0  0  0  0  0  0  0  0  0
   13.4864    7.7806   15.7094 C   0  0  0  0  0  0  0  0  0  0  0  0
   12.3134    7.0338   15.1384 C   0  0  0  0  0  0  0  0  0  0  0  0
   12.3155    5.8888   14.3657 C   0  0  0  0  0  0  0  0  0  0  0  0
   11.0102    5.4816   13.9575 C   0  0  0  0  0  0  0  0  0  0  0  0
   10.0396    6.3023   14.4786 C   0  0  0  0  0  0  0  0  0  0  0  0
   10.7053    7.5369   15.4487 S   0  0  0  0  0  0  0  0  0  0  0  0
   15.8205   10.0877   12.9458 C   0  0  0  0  0  0  0  0  0  0  0  0
   14.7292    7.5091   11.3085 C   0  0  0  0  0  0  0  0  0  0  0  0
   14.4110    7.4683   12.4927 O   0  0  0  0  0  0  0  0  0  0  0  0
   15.1040    6.4392   10.5714 O   0  0  0  0  0  0  0  0  0  0  0  0
   14.5982    5.1450   10.9362 C   0  0  0  0  0  0  0  0  0  0  0  0
   15.2798    4.6544   12.2105 C   0  0  0  0  0  0  0  0  0  0  0  0
   13.0726    5.1889   10.9896 C   0  0  0  0  0  0  0  0  0  0  0  0
   14.9697    4.1778    9.8096 C   0  0  0  0  0  0  0  0  0  0  0  0
  1  2  1  0
  3  2  1  6
  3  4  1  0
  4  5  2  0
  4  6  1  0
  6  7  1  0
  7  8  2  0
  8  9  1  0
  9 10  2  0
 10 11  1  0
 10 12  1  0
 12 13  1  0
 13 14  2  0
 13 15  1  0
 15 16  1  0
 16 17  1  0
 17 18  2  0
 18 19  1  0
 19 20  2  0
 20 21  1  0
 12 22  2  0
  3 23  1  0
 23 24  2  0
 23 25  1  0
 25 26  1  0
 26 27  1  0
 26 28  1  0
 26 29  1  0
 22  7  1  0
 21 17  1  0
M  END
>  <HIPPO ID>  (49) 
17506

>  <alias>  (49) 
None

>  <ref_mols>  (49) 
c0692a,c0892a

>  <submitter_email>  (49) 
None

>  <ref_pdb>  (49) 
c0270a

>  <inchikey>  (49) 
GDXOPEMUANKWPK-MRXNPFEDSA-N

>  <generation_date>  (49) 
None

>  <original ID>  (49) 
GDXOPEMUANKWPK-MRXNPFEDSA-N

>  <tags>  (49) 
[]

>  <exports>  (49) 
nan

>  <method>  (49) 
None

>  <submitter_name>  (49) 
None

>  <original SMILES>  (49) 
CO[C@H](C(=O)Nc1ccc(Cl)c(C(=O)NCc2cccs2)c1)C(=O)OC(C)(C)C

>  <ref_url>  (49) 
None

$$$$
YGPCGTNUGUEBRK-HXUWFJFHSA-N
     RDKit          3D

 30 33  0  0  0  0  0  0  0  0999 V2000
   18.1347   11.0578   10.6878 C   0  0  0  0  0  0  0  0  0  0  0  0
   17.3711   12.1642   11.3089 N   0  0  0  0  0  0  0  0  0  0  0  0
   18.2481   13.1693   11.8560 C   0  0  0  0  0  0  0  0  0  0  0  0
   16.4259   11.6660   12.2169 C   0  0  0  0  0  0  0  0  0  0  0  0
   16.3943   11.8859   13.5935 C   0  0  0  0  0  0  0  0  0  0  0  0
   15.6819   11.0239   14.4332 C   0  0  0  0  0  0  0  0  0  0  0  0
   14.9891    9.9841   13.8532 C   0  0  0  0  0  0  0  0  0  0  0  0
   14.3278    8.8939   14.5222 C   0  0  0  0  0  0  0  0  0  0  0  0
   13.3303    9.1682   15.1564 O   0  0  0  0  0  0  0  0  0  0  0  0
   14.8118    7.6346   14.2779 N   0  0  0  0  0  0  0  0  0  0  0  0
   14.2857    6.4695   14.9589 C   0  0  0  0  0  0  0  0  0  0  0  0
   12.8368    6.2393   14.6371 C   0  0  0  0  0  0  0  0  0  0  0  0
   12.2730    5.4951   13.6179 C   0  0  0  0  0  0  0  0  0  0  0  0
   10.8738    5.6895   13.5589 C   0  0  0  0  0  0  0  0  0  0  0  0
    9.8316    5.0300   12.1641 Br  0  0  0  0  0  0  0  0  0  0  0  0
   10.3669    6.4263   14.5920 C   0  0  0  0  0  0  0  0  0  0  0  0
   11.6050    6.9017   15.6531 S   0  0  0  0  0  0  0  0  0  0  0  0
   14.8007    9.9470   12.5135 C   0  0  0  0  0  0  0  0  0  0  0  0
   15.4942   10.7937   11.7116 C   0  0  0  0  0  0  0  0  0  0  0  0
   15.3724   10.7033   10.3342 N   0  0  0  0  0  0  0  0  0  0  0  0
   14.1690   10.3544    9.8587 C   0  0  0  0  0  0  0  0  0  0  0  0
   13.3165   11.2120    9.9691 O   0  0  0  0  0  0  0  0  0  0  0  0
   14.1157    8.9039    9.2669 C   0  0  1  0  0  0  0  0  0  0  0  0
   13.0786    8.8056    8.2265 C   0  0  0  0  0  0  0  0  0  0  0  0
   15.4649    8.6108    8.7992 O   0  0  0  0  0  0  0  0  0  0  0  0
   15.6877    8.0711   10.0026 C   0  0  0  0  0  0  0  0  0  0  0  0
   16.5873    7.9443   10.7877 O   0  0  0  0  0  0  0  0  0  0  0  0
   14.3179    7.7243   10.1297 C   0  0  0  0  0  0  0  0  0  0  0  0
   13.8538    6.3115    9.9132 C   0  0  0  0  0  0  0  0  0  0  0  0
   13.7533    6.9565   11.2509 C   0  0  0  0  0  0  0  0  0  0  0  0
  1  2  1  0
  2  3  1  0
  2  4  1  0
  4  5  2  0
  5  6  1  0
  6  7  2  0
  7  8  1  0
  8  9  2  0
  8 10  1  0
 10 11  1  0
 11 12  1  0
 12 13  2  0
 13 14  1  0
 14 15  1  0
 14 16  2  0
 16 17  1  0
  7 18  1  0
 18 19  2  0
 19 20  1  0
 20 21  1  0
 21 22  2  0
 21 23  1  0
 23 24  1  6
 23 25  1  0
 25 26  1  0
 26 27  2  0
 26 28  1  0
 28 29  1  0
 29 30  1  0
 19  4  1  0
 28 23  1  0
 17 12  1  0
 30 28  1  0
M  END
>  <HIPPO ID>  (50) 
17585

>  <alias>  (50) 
None

>  <ref_mols>  (50) 
c0692a,c0892a

>  <submitter_email>  (50) 
None

>  <ref_pdb>  (50) 
c0270a

>  <inchikey>  (50) 
YGPCGTNUGUEBRK-HXUWFJFHSA-N

>  <generation_date>  (50) 
None

>  <original ID>  (50) 
YGPCGTNUGUEBRK-HXUWFJFHSA-N

>  <tags>  (50) 
[]

>  <exports>  (50) 
nan

>  <method>  (50) 
None

>  <submitter_name>  (50) 
None

>  <original SMILES>  (50) 
CN(C)c1ccc(C(=O)NCc2cc(Br)cs2)cc1NC(=O)[C@@]1(C)OC(=O)C12CC2

>  <ref_url>  (50) 
None

$$$$
ILWALYUZXFLVLZ-CQSZACIVSA-N
     RDKit          3D

 30 32  0  0  0  0  0  0  0  0999 V2000
   17.9255   11.5492   10.8963 C   0  0  0  0  0  0  0  0  0  0  0  0
   17.2449   12.6171   11.6728 N   0  0  0  0  0  0  0  0  0  0  0  0
   18.2061   13.5873   12.1977 C   0  0  0  0  0  0  0  0  0  0  0  0
   16.3502   12.0633   12.6284 C   0  0  0  0  0  0  0  0  0  0  0  0
   16.4204   12.3488   13.9974 C   0  0  0  0  0  0  0  0  0  0  0  0
   15.8185   11.5230   14.9554 C   0  0  0  0  0  0  0  0  0  0  0  0
   15.0604   10.4351   14.5523 C   0  0  0  0  0  0  0  0  0  0  0  0
   14.5365    9.4705   15.5520 C   0  0  0  0  0  0  0  0  0  0  0  0
   14.7291    9.6639   16.7462 O   0  0  0  0  0  0  0  0  0  0  0  0
   13.8564    8.3723   15.0745 N   0  0  0  0  0  0  0  0  0  0  0  0
   13.3816    7.3302   15.9492 C   0  0  0  0  0  0  0  0  0  0  0  0
   12.0464    6.8911   15.4431 C   0  0  0  0  0  0  0  0  0  0  0  0
   11.7553    6.1544   14.3115 C   0  0  0  0  0  0  0  0  0  0  0  0
   10.3711    5.8973   14.1946 C   0  0  0  0  0  0  0  0  0  0  0  0
    9.6814    4.8480   12.8038 Br  0  0  0  0  0  0  0  0  0  0  0  0
    9.6240    6.4636   15.1924 C   0  0  0  0  0  0  0  0  0  0  0  0
   10.6207    7.2715   16.3190 S   0  0  0  0  0  0  0  0  0  0  0  0
   14.7950   10.2985   13.2032 C   0  0  0  0  0  0  0  0  0  0  0  0
   15.4105   11.0967   12.2521 C   0  0  0  0  0  0  0  0  0  0  0  0
   15.0046   11.0121   10.9177 N   0  0  0  0  0  0  0  0  0  0  0  0
   14.6919    9.9039   10.1825 C   0  0  0  0  0  0  0  0  0  0  0  0
   14.0571   10.0278    9.1377 O   0  0  0  0  0  0  0  0  0  0  0  0
   15.2482    8.5543   10.6324 C   0  0  0  0  0  0  0  0  0  0  0  0
   14.4680    7.8256   11.5757 O   0  0  0  0  0  0  0  0  0  0  0  0
   15.1441    6.6606   12.0249 C   0  0  0  0  0  0  0  0  0  0  0  0
   14.5346    5.3891   11.4709 C   0  0  2  0  0  0  0  0  0  0  0  0
   15.5802    4.3521   11.1417 C   0  0  0  0  0  0  0  0  0  0  0  0
   14.8949    3.5112   10.1004 C   0  0  0  0  0  0  0  0  0  0  0  0
   13.9130    4.3228    9.4555 O   0  0  0  0  0  0  0  0  0  0  0  0
   13.7303    5.5282   10.1987 C   0  0  0  0  0  0  0  0  0  0  0  0
  1  2  1  0
  2  3  1  0
  2  4  1  0
  4  5  2  0
  5  6  1  0
  6  7  2  0
  7  8  1  0
  8  9  2  0
  8 10  1  0
 10 11  1  0
 11 12  1  0
 12 13  2  0
 13 14  1  0
 14 15  1  0
 14 16  2  0
 16 17  1  0
  7 18  1  0
 18 19  2  0
 19 20  1  0
 20 21  1  0
 21 22  2  0
 21 23  1  0
 23 24  1  0
 24 25  1  0
 26 25  1  6
 26 27  1  0
 27 28  1  0
 28 29  1  0
 29 30  1  0
 19  4  1  0
 30 26  1  0
 17 12  1  0
M  END
>  <HIPPO ID>  (51) 
17663

>  <alias>  (51) 
None

>  <ref_mols>  (51) 
c0692a,c0892a

>  <submitter_email>  (51) 
None

>  <ref_pdb>  (51) 
c0270a

>  <inchikey>  (51) 
ILWALYUZXFLVLZ-CQSZACIVSA-N

>  <generation_date>  (51) 
None

>  <original ID>  (51) 
ILWALYUZXFLVLZ-CQSZACIVSA-N

>  <tags>  (51) 
[]

>  <exports>  (51) 
nan

>  <method>  (51) 
None

>  <submitter_name>  (51) 
None

>  <original SMILES>  (51) 
CN(C)c1ccc(C(=O)NCc2cc(Br)cs2)cc1NC(=O)COC[C@@H]1CCOC1

>  <ref_url>  (51) 
None

$$$$
ZSTDYUIIKDKHPQ-IBGZPJMESA-N
     RDKit          3D

 30 32  0  0  0  0  0  0  0  0999 V2000
   17.8467   11.1232   10.6547 C   0  0  0  0  0  0  0  0  0  0  0  0
   17.3552   12.2630   11.4480 N   0  0  0  0  0  0  0  0  0  0  0  0
   18.4640   13.1914   11.7486 C   0  0  0  0  0  0  0  0  0  0  0  0
   16.4711   12.0212   12.5302 C   0  0  0  0  0  0  0  0  0  0  0  0
   16.3634   12.9851   13.5464 C   0  0  0  0  0  0  0  0  0  0  0  0
   15.8868   12.6575   14.8066 C   0  0  0  0  0  0  0  0  0  0  0  0
   15.4542   11.3651   15.0649 C   0  0  0  0  0  0  0  0  0  0  0  0
   15.2226   11.0257   16.4817 C   0  0  0  0  0  0  0  0  0  0  0  0
   14.9052   11.9165   17.2663 O   0  0  0  0  0  0  0  0  0  0  0  0
   15.4038    9.7712   16.9828 N   0  0  0  0  0  0  0  0  0  0  0  0
   16.1440    8.6546   16.4576 C   0  0  0  0  0  0  0  0  0  0  0  0
   15.2491    7.4916   16.1891 C   0  0  0  0  0  0  0  0  0  0  0  0
   15.6534    6.2206   15.8256 C   0  0  0  0  0  0  0  0  0  0  0  0
   14.5583    5.4215   15.4352 C   0  0  0  0  0  0  0  0  0  0  0  0
   14.8265    3.7278   14.6494 Br  0  0  0  0  0  0  0  0  0  0  0  0
   13.3552    6.0611   15.5842 C   0  0  0  0  0  0  0  0  0  0  0  0
   13.5367    7.6070   16.2585 S   0  0  0  0  0  0  0  0  0  0  0  0
   15.2294   10.5057   13.9953 C   0  0  0  0  0  0  0  0  0  0  0  0
   15.7074   10.8348   12.7213 C   0  0  0  0  0  0  0  0  0  0  0  0
   15.3436   10.0541   11.5971 N   0  0  0  0  0  0  0  0  0  0  0  0
   15.6690    8.7356   11.4080 C   0  0  0  0  0  0  0  0  0  0  0  0
   16.2254    8.4359   10.3508 O   0  0  0  0  0  0  0  0  0  0  0  0
   15.3692    7.6759   12.4699 C   0  0  2  0  0  0  0  0  0  0  0  0
   15.9159    6.2932   12.1263 C   0  0  0  0  0  0  0  0  0  0  0  0
   15.0398    5.3689   11.2916 C   0  0  0  0  0  0  0  0  0  0  0  0
   13.6193    5.8862   11.1125 C   0  0  0  0  0  0  0  0  0  0  0  0
   12.6653    4.7091   10.9619 C   0  0  0  0  0  0  0  0  0  0  0  0
   13.5137    6.7388    9.8563 C   0  0  0  0  0  0  0  0  0  0  0  0
   13.2100    6.5927   12.3872 C   0  0  0  0  0  0  0  0  0  0  0  0
   13.9958    7.6926   12.7926 O   0  0  0  0  0  0  0  0  0  0  0  0
  1  2  1  0
  2  3  1  0
  2  4  1  0
  4  5  2  0
  5  6  1  0
  6  7  2  0
  7  8  1  0
  8  9  2  0
  8 10  1  0
 10 11  1  0
 11 12  1  0
 12 13  2  0
 13 14  1  0
 14 15  1  0
 14 16  2  0
 16 17  1  0
  7 18  1  0
 18 19  2  0
 19 20  1  0
 20 21  1  0
 21 22  2  0
 23 21  1  6
 23 24  1  0
 24 25  1  0
 25 26  1  0
 26 27  1  0
 26 28  1  0
 26 29  1  0
 29 30  1  0
 19  4  1  0
 30 23  1  0
 17 12  1  0
M  END
>  <HIPPO ID>  (52) 
17686

>  <alias>  (52) 
None

>  <ref_mols>  (52) 
c0692a,c0892a

>  <submitter_email>  (52) 
None

>  <ref_pdb>  (52) 
c0270a

>  <inchikey>  (52) 
ZSTDYUIIKDKHPQ-IBGZPJMESA-N

>  <generation_date>  (52) 
None

>  <original ID>  (52) 
ZSTDYUIIKDKHPQ-IBGZPJMESA-N

>  <tags>  (52) 
[]

>  <exports>  (52) 
nan

>  <method>  (52) 
None

>  <submitter_name>  (52) 
None

>  <original SMILES>  (52) 
CN(C)c1ccc(C(=O)NCc2cc(Br)cs2)cc1NC(=O)[C@@H]1CCC(C)(C)CO1

>  <ref_url>  (52) 
None

$$$$
ZSTDYUIIKDKHPQ-IBGZPJMESA-N
     RDKit          3D

 30 32  0  0  0  0  0  0  0  0999 V2000
   18.1926   13.6378   12.2216 C   0  0  0  0  0  0  0  0  0  0  0  0
   17.1278   12.7412   11.7680 N   0  0  0  0  0  0  0  0  0  0  0  0
   17.6927   11.5896   11.0184 C   0  0  0  0  0  0  0  0  0  0  0  0
   16.2286   12.3014   12.7768 C   0  0  0  0  0  0  0  0  0  0  0  0
   16.4550   12.4944   14.1407 C   0  0  0  0  0  0  0  0  0  0  0  0
   15.8849   11.6539   15.1109 C   0  0  0  0  0  0  0  0  0  0  0  0
   14.9347   10.7191   14.7411 C   0  0  0  0  0  0  0  0  0  0  0  0
   14.4896    9.6516   15.6779 C   0  0  0  0  0  0  0  0  0  0  0  0
   14.9590    9.6055   16.8085 O   0  0  0  0  0  0  0  0  0  0  0  0
   13.5659    8.7251   15.2243 N   0  0  0  0  0  0  0  0  0  0  0  0
   13.1679    7.6146   16.0680 C   0  0  0  0  0  0  0  0  0  0  0  0
   11.8439    7.0827   15.6023 C   0  0  0  0  0  0  0  0  0  0  0  0
   11.5958    6.0806   14.6865 C   0  0  0  0  0  0  0  0  0  0  0  0
   10.2126    5.8720   14.4665 C   0  0  0  0  0  0  0  0  0  0  0  0
    9.5586    4.5912   13.2559 Br  0  0  0  0  0  0  0  0  0  0  0  0
    9.4215    6.6734   15.2433 C   0  0  0  0  0  0  0  0  0  0  0  0
   10.3689    7.6318   16.2864 S   0  0  0  0  0  0  0  0  0  0  0  0
   14.4385   10.8149   13.4629 C   0  0  0  0  0  0  0  0  0  0  0  0
   15.1176   11.5160   12.4751 C   0  0  0  0  0  0  0  0  0  0  0  0
   14.6608   11.4022   11.1642 N   0  0  0  0  0  0  0  0  0  0  0  0
   14.6044   10.2217   10.4673 C   0  0  0  0  0  0  0  0  0  0  0  0
   14.2188   10.2532    9.2981 O   0  0  0  0  0  0  0  0  0  0  0  0
   15.1273    8.9246   11.1588 C   0  0  2  0  0  0  0  0  0  0  0  0
   15.3325    7.8807   10.0866 C   0  0  0  0  0  0  0  0  0  0  0  0
   14.1966    6.8789   10.0717 C   0  0  0  0  0  0  0  0  0  0  0  0
   14.1853    6.0941   11.3841 C   0  0  0  0  0  0  0  0  0  0  0  0
   15.0775    4.8484   11.3052 C   0  0  0  0  0  0  0  0  0  0  0  0
   12.7503    5.6151   11.5974 C   0  0  0  0  0  0  0  0  0  0  0  0
   14.7143    6.9890   12.5148 C   0  0  0  0  0  0  0  0  0  0  0  0
   14.4050    8.3593   12.2592 O   0  0  0  0  0  0  0  0  0  0  0  0
  1  2  1  0
  2  3  1  0
  2  4  1  0
  4  5  2  0
  5  6  1  0
  6  7  2  0
  7  8  1  0
  8  9  2  0
  8 10  1  0
 10 11  1  0
 11 12  1  0
 12 13  2  0
 13 14  1  0
 14 15  1  0
 14 16  2  0
 16 17  1  0
  7 18  1  0
 18 19  2  0
 19 20  1  0
 20 21  1  0
 21 22  2  0
 23 21  1  6
 23 24  1  0
 24 25  1  0
 25 26  1  0
 26 27  1  0
 26 28  1  0
 26 29  1  0
 29 30  1  0
 19  4  1  0
 30 23  1  0
 17 12  1  0
M  END
>  <HIPPO ID>  (53) 
17687

>  <alias>  (53) 
None

>  <ref_mols>  (53) 
c0692a,c0892a

>  <submitter_email>  (53) 
None

>  <ref_pdb>  (53) 
c0270a

>  <inchikey>  (53) 
ZSTDYUIIKDKHPQ-IBGZPJMESA-N

>  <generation_date>  (53) 
None

>  <original ID>  (53) 
ZSTDYUIIKDKHPQ-IBGZPJMESA-N

>  <tags>  (53) 
[]

>  <exports>  (53) 
nan

>  <method>  (53) 
None

>  <submitter_name>  (53) 
None

>  <original SMILES>  (53) 
CN(C)c1ccc(C(=O)NCc2cc(Br)cs2)cc1NC(=O)[C@@H]1CCC(C)(C)CO1

>  <ref_url>  (53) 
None

$$$$
ZAAMMOGIRLSEAW-UHFFFAOYSA-N
     RDKit          3D

 31 33  0  0  0  0  0  0  0  0999 V2000
   17.1283   11.2423   10.7865 C   0  0  0  0  0  0  0  0  0  0  0  0
   16.4714   11.9107   11.8955 N   0  0  0  0  0  0  0  0  0  0  0  0
   16.0388   13.2724   11.8801 C   0  0  0  0  0  0  0  0  0  0  0  0
   15.7260   11.2244   12.8179 C   0  0  0  0  0  0  0  0  0  0  0  0
   16.0983   11.4134   14.1591 C   0  0  0  0  0  0  0  0  0  0  0  0
   15.8185   10.4530   15.1067 C   0  0  0  0  0  0  0  0  0  0  0  0
   15.0505    9.3976   14.6932 C   0  0  0  0  0  0  0  0  0  0  0  0
   15.2310    8.0371   15.1519 C   0  0  0  0  0  0  0  0  0  0  0  0
   16.1651    7.3715   14.7348 O   0  0  0  0  0  0  0  0  0  0  0  0
   14.1579    7.5604   15.8196 N   0  0  0  0  0  0  0  0  0  0  0  0
   13.7376    6.2176   15.5499 C   0  0  0  0  0  0  0  0  0  0  0  0
   12.3740    6.2773   14.9306 C   0  0  0  0  0  0  0  0  0  0  0  0
   11.8394    5.4105   14.0050 C   0  0  0  0  0  0  0  0  0  0  0  0
   10.5125    5.7406   13.6799 C   0  0  0  0  0  0  0  0  0  0  0  0
    9.5137    4.7250   12.4863 Br  0  0  0  0  0  0  0  0  0  0  0  0
   10.0323    6.8246   14.3591 C   0  0  0  0  0  0  0  0  0  0  0  0
   11.2039    7.4277   15.4316 S   0  0  0  0  0  0  0  0  0  0  0  0
   14.4103    9.3768   13.4825 C   0  0  0  0  0  0  0  0  0  0  0  0
   14.8008   10.2554   12.5080 C   0  0  0  0  0  0  0  0  0  0  0  0
   14.4086    9.8895   11.2368 N   0  0  0  0  0  0  0  0  0  0  0  0
   14.2180   10.6515   10.1353 C   0  0  0  0  0  0  0  0  0  0  0  0
   14.2397   11.8653   10.0871 O   0  0  0  0  0  0  0  0  0  0  0  0
   13.8700    9.8829    8.8821 C   0  0  0  0  0  0  0  0  0  0  0  0
   13.9958    8.5211    8.7762 O   0  0  0  0  0  0  0  0  0  0  0  0
   15.1842    8.1300    9.3733 C   0  0  0  0  0  0  0  0  0  0  0  0
   14.6963    7.0651   10.2339 C   0  0  0  0  0  0  0  0  0  0  0  0
   13.6650    6.1780   10.0748 C   0  0  0  0  0  0  0  0  0  0  0  0
   13.5844    5.5146   11.2906 C   0  0  0  0  0  0  0  0  0  0  0  0
   14.4636    5.9799   12.1796 N   0  0  0  0  0  0  0  0  0  0  0  0
   15.1850    6.8449   11.4687 N   0  0  0  0  0  0  0  0  0  0  0  0
   16.4136    7.3539   11.9640 C   0  0  0  0  0  0  0  0  0  0  0  0
  1  2  1  0
  2  3  1  0
  2  4  1  0
  4  5  2  0
  5  6  1  0
  6  7  2  0
  7  8  1  0
  8  9  2  0
  8 10  1  0
 10 11  1  0
 11 12  1  0
 12 13  2  0
 13 14  1  0
 14 15  1  0
 14 16  2  0
 16 17  1  0
  7 18  1  0
 18 19  2  0
 19 20  1  0
 20 21  1  0
 21 22  2  0
 21 23  1  0
 23 24  1  0
 24 25  1  0
 25 26  1  0
 26 27  2  0
 27 28  1  0
 28 29  2  0
 29 30  1  0
 30 31  1  0
 19  4  1  0
 30 26  1  0
 17 12  1  0
M  END
>  <HIPPO ID>  (54) 
17833

>  <alias>  (54) 
None

>  <ref_mols>  (54) 
c0692a,c0892a

>  <submitter_email>  (54) 
None

>  <ref_pdb>  (54) 
c0270a

>  <inchikey>  (54) 
ZAAMMOGIRLSEAW-UHFFFAOYSA-N

>  <generation_date>  (54) 
None

>  <original ID>  (54) 
ZAAMMOGIRLSEAW-UHFFFAOYSA-N

>  <tags>  (54) 
[]

>  <exports>  (54) 
nan

>  <method>  (54) 
None

>  <submitter_name>  (54) 
None

>  <original SMILES>  (54) 
CN(C)c1ccc(C(=O)NCc2cc(Br)cs2)cc1NC(=O)COCc1ccnn1C

>  <ref_url>  (54) 
None

$$$$
PZUJMOZMSJBQGN-UHFFFAOYSA-N
     RDKit          3D

 20 21  0  0  0  0  0  0  0  0999 V2000
   13.4986    6.3765   10.1230 C   0  0  0  0  0  0  0  0  0  0  0  0
   13.8715    7.0468   11.3186 O   0  0  0  0  0  0  0  0  0  0  0  0
   14.6827    8.1393   11.1875 C   0  0  0  0  0  0  0  0  0  0  0  0
   15.0773    8.7333    9.9937 C   0  0  0  0  0  0  0  0  0  0  0  0
   15.8184    9.9194   10.0164 C   0  0  0  0  0  0  0  0  0  0  0  0
   16.1805   10.5224   11.2218 C   0  0  0  0  0  0  0  0  0  0  0  0
   16.7539   11.8122   11.2463 N   0  0  0  0  0  0  0  0  0  0  0  0
   18.1020   12.1618   11.4865 C   0  0  0  0  0  0  0  0  0  0  0  0
   19.1618   11.4845   10.8844 C   0  0  0  0  0  0  0  0  0  0  0  0
   20.5055   11.8217   11.1680 C   0  0  0  0  0  0  0  0  0  0  0  0
   21.5971   11.0388   10.5166 C   0  0  0  0  0  0  0  0  0  0  0  0
   22.4791   11.9219    9.8541 O   0  0  0  0  0  0  0  0  0  0  0  0
   20.7760   12.8432   12.0941 C   0  0  0  0  0  0  0  0  0  0  0  0
   22.7733   13.2570   12.7724 I   0  0  0  0  0  0  0  0  0  0  0  0
   19.7234   13.5753   12.6540 C   0  0  0  0  0  0  0  0  0  0  0  0
   20.0809   14.5303   13.5631 O   0  0  0  0  0  0  0  0  0  0  0  0
   19.0861   15.4000   14.0564 C   0  0  0  0  0  0  0  0  0  0  0  0
   18.3994   13.2484   12.3244 C   0  0  0  0  0  0  0  0  0  0  0  0
   15.8044    9.9068   12.4163 C   0  0  0  0  0  0  0  0  0  0  0  0
   15.0694    8.7206   12.3969 C   0  0  0  0  0  0  0  0  0  0  0  0
  1  2  1  0
  2  3  1  0
  3  4  2  0
  4  5  1  0
  5  6  2  0
  6  7  1  0
  7  8  1  0
  8  9  2  0
  9 10  1  0
 10 11  1  0
 11 12  1  0
 10 13  2  0
 13 14  1  0
 13 15  1  0
 15 16  1  0
 16 17  1  0
 15 18  2  0
  6 19  1  0
 19 20  2  0
 20  3  1  0
 18  8  1  0
M  END
>  <HIPPO ID>  (55) 
19251

>  <alias>  (55) 
None

>  <ref_mols>  (55) 
c0935a,c1116a

>  <submitter_email>  (55) 
None

>  <ref_pdb>  (55) 
c0270a

>  <inchikey>  (55) 
PZUJMOZMSJBQGN-UHFFFAOYSA-N

>  <generation_date>  (55) 
None

>  <original ID>  (55) 
PZUJMOZMSJBQGN-UHFFFAOYSA-N

>  <tags>  (55) 
[]

>  <exports>  (55) 
nan

>  <method>  (55) 
None

>  <submitter_name>  (55) 
None

>  <original SMILES>  (55) 
COc1ccc(Nc2cc(CO)c(I)c(OC)c2)cc1

>  <ref_url>  (55) 
None

$$$$
KMPLSLVFAAQSFI-UHFFFAOYSA-N
     RDKit          3D

 22 23  0  0  0  0  0  0  0  0999 V2000
   13.5635    6.5293   10.8781 C   0  0  0  0  0  0  0  0  0  0  0  0
   13.9310    7.4573   11.8873 O   0  0  0  0  0  0  0  0  0  0  0  0
   14.7870    8.4774   11.5711 C   0  0  0  0  0  0  0  0  0  0  0  0
   15.2568    8.7424   10.2957 C   0  0  0  0  0  0  0  0  0  0  0  0
   16.1936    9.7678   10.1043 C   0  0  0  0  0  0  0  0  0  0  0  0
   16.7038   10.5607   11.1582 C   0  0  0  0  0  0  0  0  0  0  0  0
   17.7500   11.4597   10.8559 N   0  0  0  0  0  0  0  0  0  0  0  0
   18.6322   12.3840   11.4847 C   0  0  0  0  0  0  0  0  0  0  0  0
   19.9994   12.2859   11.0991 C   0  0  0  0  0  0  0  0  0  0  0  0
   20.3360   11.1951   10.3361 O   0  0  0  0  0  0  0  0  0  0  0  0
   21.6821   10.7887   10.5607 C   0  0  0  0  0  0  0  0  0  0  0  0
   20.9883   13.2044   11.4882 C   0  0  0  0  0  0  0  0  0  0  0  0
   20.6932   14.1803   12.4010 C   0  0  0  0  0  0  0  0  0  0  0  0
   19.3989   14.2511   12.8702 C   0  0  0  0  0  0  0  0  0  0  0  0
   18.3538   13.3894   12.4157 C   0  0  0  0  0  0  0  0  0  0  0  0
   17.0272   13.6991   13.0236 C   0  0  0  0  0  0  0  0  0  0  0  0
   15.9805   13.6149   12.1752 F   0  0  0  0  0  0  0  0  0  0  0  0
   16.9860   14.9718   13.5250 F   0  0  0  0  0  0  0  0  0  0  0  0
   16.7611   12.9039   14.0970 F   0  0  0  0  0  0  0  0  0  0  0  0
   16.1426   10.3607   12.4073 C   0  0  0  0  0  0  0  0  0  0  0  0
   15.2076    9.3246   12.6133 C   0  0  0  0  0  0  0  0  0  0  0  0
   14.5098    9.0612   14.5819 I   0  0  0  0  0  0  0  0  0  0  0  0
  1  2  1  0
  2  3  1  0
  3  4  2  0
  4  5  1  0
  5  6  2  0
  6  7  1  0
  7  8  1  0
  8  9  2  0
  9 10  1  0
 10 11  1  0
  9 12  1  0
 12 13  2  0
 13 14  1  0
 14 15  2  0
 15 16  1  0
 16 17  1  0
 16 18  1  0
 16 19  1  0
  6 20  1  0
 20 21  2  0
 21 22  1  0
 21  3  1  0
 15  8  1  0
M  END
>  <HIPPO ID>  (56) 
20926

>  <alias>  (56) 
None

>  <ref_mols>  (56) 
c0935a,c1116a

>  <submitter_email>  (56) 
None

>  <ref_pdb>  (56) 
c0270a

>  <inchikey>  (56) 
KMPLSLVFAAQSFI-UHFFFAOYSA-N

>  <generation_date>  (56) 
None

>  <original ID>  (56) 
KMPLSLVFAAQSFI-UHFFFAOYSA-N

>  <tags>  (56) 
[]

>  <exports>  (56) 
nan

>  <method>  (56) 
None

>  <submitter_name>  (56) 
None

>  <original SMILES>  (56) 
COc1ccc(Nc2c(OC)cccc2C(F)(F)F)cc1I

>  <ref_url>  (56) 
None

$$$$
LADDOHDIQLJBQP-UHFFFAOYSA-N
     RDKit          3D

 22 24  0  0  0  0  0  0  0  0999 V2000
   21.6457   10.8496   10.5988 C   0  0  0  0  0  0  0  0  0  0  0  0
   20.2803   11.1877   10.3803 O   0  0  0  0  0  0  0  0  0  0  0  0
   19.8709   12.2467   11.1521 C   0  0  0  0  0  0  0  0  0  0  0  0
   20.7993   13.1912   11.6316 C   0  0  0  0  0  0  0  0  0  0  0  0
   20.4007   14.1742   12.5048 C   0  0  0  0  0  0  0  0  0  0  0  0
   19.0684   14.2047   12.8528 C   0  0  0  0  0  0  0  0  0  0  0  0
   18.1133   13.2852   12.3575 C   0  0  0  0  0  0  0  0  0  0  0  0
   18.4834   12.3007   11.4546 C   0  0  0  0  0  0  0  0  0  0  0  0
   17.6276   11.3991   10.7820 N   0  0  0  0  0  0  0  0  0  0  0  0
   16.5733   10.5215   11.0918 C   0  0  0  0  0  0  0  0  0  0  0  0
   15.8883    9.9405   10.0091 C   0  0  0  0  0  0  0  0  0  0  0  0
   14.9351    8.9371   10.1882 C   0  0  0  0  0  0  0  0  0  0  0  0
   14.1252    8.5395    9.0853 C   0  0  0  0  0  0  0  0  0  0  0  0
   13.3882    8.3436    8.2143 N   0  0  0  0  0  0  0  0  0  0  0  0
   14.6998    8.4461   11.4644 C   0  0  0  0  0  0  0  0  0  0  0  0
   13.8737    7.3694   11.6323 O   0  0  0  0  0  0  0  0  0  0  0  0
   15.2617    9.0879   12.5613 C   0  0  0  0  0  0  0  0  0  0  0  0
   16.1519   10.1495   12.3651 C   0  0  0  0  0  0  0  0  0  0  0  0
   16.6858   10.7041   13.4566 F   0  0  0  0  0  0  0  0  0  0  0  0
   16.7784   13.6074   12.9456 C   0  0  0  0  0  0  0  0  0  0  0  0
   16.9886   15.0183   13.5153 C   0  0  0  0  0  0  0  0  0  0  0  0
   18.4759   15.2091   13.7806 C   0  0  0  0  0  0  0  0  0  0  0  0
  1  2  1  0
  2  3  1  0
  3  4  2  0
  4  5  1  0
  5  6  2  0
  6  7  1  0
  7  8  2  0
  8  9  1  0
  9 10  1  0
 10 11  2  0
 11 12  1  0
 12 13  1  0
 13 14  3  0
 12 15  2  0
 15 16  1  0
 15 17  1  0
 17 18  2  0
 18 19  1  0
  7 20  1  0
 20 21  1  0
 21 22  1  0
  8  3  1  0
 18 10  1  0
 22  6  1  0
M  END
>  <HIPPO ID>  (57) 
21168

>  <alias>  (57) 
None

>  <ref_mols>  (57) 
c0935a,c1116a

>  <submitter_email>  (57) 
None

>  <ref_pdb>  (57) 
c0270a

>  <inchikey>  (57) 
LADDOHDIQLJBQP-UHFFFAOYSA-N

>  <generation_date>  (57) 
None

>  <original ID>  (57) 
LADDOHDIQLJBQP-UHFFFAOYSA-N

>  <tags>  (57) 
[]

>  <exports>  (57) 
nan

>  <method>  (57) 
None

>  <submitter_name>  (57) 
None

>  <original SMILES>  (57) 
COc1ccc2c(c1Nc1cc(C#N)c(O)cc1F)CCC2

>  <ref_url>  (57) 
None

$$$$
SZTZSZPNVMEEFR-UHFFFAOYSA-N
     RDKit          3D

 22 24  0  0  0  0  0  0  0  0999 V2000
   21.1274   10.7759   10.1923 C   0  0  0  0  0  0  0  0  0  0  0  0
   19.7804   11.0851   10.5149 O   0  0  0  0  0  0  0  0  0  0  0  0
   19.6253   12.1295   11.3763 C   0  0  0  0  0  0  0  0  0  0  0  0
   20.7481   12.8236   11.8950 C   0  0  0  0  0  0  0  0  0  0  0  0
   20.6018   13.9221   12.7158 C   0  0  0  0  0  0  0  0  0  0  0  0
   19.3216   14.2927   13.0431 C   0  0  0  0  0  0  0  0  0  0  0  0
   18.1937   13.5863   12.5895 C   0  0  0  0  0  0  0  0  0  0  0  0
   18.3058   12.5000   11.7204 C   0  0  0  0  0  0  0  0  0  0  0  0
   17.1429   11.9108   11.1531 N   0  0  0  0  0  0  0  0  0  0  0  0
   16.5158   10.6456   11.3030 C   0  0  0  0  0  0  0  0  0  0  0  0
   15.9196   10.0606   10.1741 C   0  0  0  0  0  0  0  0  0  0  0  0
   15.0145    8.9948   10.2759 C   0  0  0  0  0  0  0  0  0  0  0  0
   14.0684    8.6299    8.8850 Cl  0  0  0  0  0  0  0  0  0  0  0  0
   14.7237    8.4367   11.5177 C   0  0  0  0  0  0  0  0  0  0  0  0
   13.8154    7.4281   11.7287 O   0  0  0  0  0  0  0  0  0  0  0  0
   13.9888    6.2440   10.9624 C   0  0  0  0  0  0  0  0  0  0  0  0
   15.2263    9.0936   12.6512 C   0  0  0  0  0  0  0  0  0  0  0  0
   14.6387    8.6906   14.2289 Cl  0  0  0  0  0  0  0  0  0  0  0  0
   16.1157   10.1761   12.5502 C   0  0  0  0  0  0  0  0  0  0  0  0
   16.9544   14.2208   13.1394 C   0  0  0  0  0  0  0  0  0  0  0  0
   17.5003   15.1686   14.2148 C   0  0  0  0  0  0  0  0  0  0  0  0
   18.9543   15.4778   13.8670 C   0  0  0  0  0  0  0  0  0  0  0  0
  1  2  1  0
  2  3  1  0
  3  4  2  0
  4  5  1  0
  5  6  2  0
  6  7  1  0
  7  8  2  0
  8  9  1  0
  9 10  1  0
 10 11  2  0
 11 12  1  0
 12 13  1  0
 12 14  2  0
 14 15  1  0
 15 16  1  0
 14 17  1  0
 17 18  1  0
 17 19  2  0
  7 20  1  0
 20 21  1  0
 21 22  1  0
  8  3  1  0
 19 10  1  0
 22  6  1  0
M  END
>  <HIPPO ID>  (58) 
21196

>  <alias>  (58) 
None

>  <ref_mols>  (58) 
c0935a,c1116a

>  <submitter_email>  (58) 
None

>  <ref_pdb>  (58) 
c0270a

>  <inchikey>  (58) 
SZTZSZPNVMEEFR-UHFFFAOYSA-N

>  <generation_date>  (58) 
None

>  <original ID>  (58) 
SZTZSZPNVMEEFR-UHFFFAOYSA-N

>  <tags>  (58) 
[]

>  <exports>  (58) 
['/opt/xchem-fragalysis-2/maxwin/CHIKV_HIPPO/hippo_prod/CHIKV_prod11_recipes/Recipe_1G8PPKY_poses.sdf']

>  <method>  (58) 
None

>  <submitter_name>  (58) 
None

>  <original SMILES>  (58) 
COc1ccc2c(c1Nc1cc(Cl)c(OC)c(Cl)c1)CCC2

>  <ref_url>  (58) 
None

$$$$
AGHSNHSBWRQWGK-UHFFFAOYSA-N
     RDKit          3D

 23 24  0  0  0  0  0  0  0  0999 V2000
   13.3803    6.4650   13.2453 C   0  0  0  0  0  0  0  0  0  0  0  0
   13.6963    6.9073   11.9407 O   0  0  0  0  0  0  0  0  0  0  0  0
   14.5280    7.9782   11.8186 C   0  0  0  0  0  0  0  0  0  0  0  0
   14.7220    8.3464   10.5087 C   0  0  0  0  0  0  0  0  0  0  0  0
   15.4853    9.4742   10.2380 C   0  0  0  0  0  0  0  0  0  0  0  0
   15.6187    9.7502    8.8448 C   0  0  0  0  0  0  0  0  0  0  0  0
   16.5547    9.2108    8.2922 O   0  0  0  0  0  0  0  0  0  0  0  0
   16.1572   10.2499   11.1945 C   0  0  0  0  0  0  0  0  0  0  0  0
   16.9233   11.3934   10.7943 N   0  0  0  0  0  0  0  0  0  0  0  0
   18.2606   11.7355   11.1700 C   0  0  0  0  0  0  0  0  0  0  0  0
   19.3068   11.0604   10.5311 C   0  0  0  0  0  0  0  0  0  0  0  0
   20.6435   11.3672   10.7784 C   0  0  0  0  0  0  0  0  0  0  0  0
   20.9612   12.3730   11.6770 C   0  0  0  0  0  0  0  0  0  0  0  0
   22.2963   12.5562   11.8979 O   0  0  0  0  0  0  0  0  0  0  0  0
   19.9458   13.1074   12.2988 C   0  0  0  0  0  0  0  0  0  0  0  0
   20.2785   14.1657   13.1988 C   0  0  0  0  0  0  0  0  0  0  0  0
   20.6229   15.0122   13.9152 N   0  0  0  0  0  0  0  0  0  0  0  0
   18.5983   12.7802   12.0468 C   0  0  0  0  0  0  0  0  0  0  0  0
   17.6269   13.4772   12.6596 F   0  0  0  0  0  0  0  0  0  0  0  0
   15.8822    9.8944   12.5142 C   0  0  0  0  0  0  0  0  0  0  0  0
   16.4008   10.6457   13.5365 O   0  0  0  0  0  0  0  0  0  0  0  0
   15.3683   11.4115   14.1559 C   0  0  0  0  0  0  0  0  0  0  0  0
   15.1053    8.7509   12.8288 C   0  0  0  0  0  0  0  0  0  0  0  0
  1  2  1  0
  2  3  1  0
  3  4  2  0
  4  5  1  0
  5  6  1  0
  6  7  2  0
  5  8  2  0
  8  9  1  0
  9 10  1  0
 10 11  2  0
 11 12  1  0
 12 13  2  0
 13 14  1  0
 13 15  1  0
 15 16  1  0
 16 17  3  0
 15 18  2  0
 18 19  1  0
  8 20  1  0
 20 21  1  0
 21 22  1  0
 20 23  2  0
 23  3  1  0
 18 10  1  0
M  END
>  <HIPPO ID>  (59) 
21515

>  <alias>  (59) 
None

>  <ref_mols>  (59) 
c0935a,c1116a

>  <submitter_email>  (59) 
None

>  <ref_pdb>  (59) 
c0270a

>  <inchikey>  (59) 
AGHSNHSBWRQWGK-UHFFFAOYSA-N

>  <generation_date>  (59) 
None

>  <original ID>  (59) 
AGHSNHSBWRQWGK-UHFFFAOYSA-N

>  <tags>  (59) 
[]

>  <exports>  (59) 
nan

>  <method>  (59) 
None

>  <submitter_name>  (59) 
None

>  <original SMILES>  (59) 
COc1cc(C=O)c(Nc2ccc(O)c(C#N)c2F)c(OC)c1

>  <ref_url>  (59) 
None

$$$$
OTGDWBHLOVJBBA-UHFFFAOYSA-N
     RDKit          3D

 24 26  0  0  0  0  0  0  0  0999 V2000
   23.7786   12.4934    8.2547 C   0  0  0  0  0  0  0  0  0  0  0  0
   22.5560   12.8618    8.9133 O   0  0  0  0  0  0  0  0  0  0  0  0
   22.0644   11.9694    9.8169 C   0  0  0  0  0  0  0  0  0  0  0  0
   21.4667   10.9340    9.6208 O   0  0  0  0  0  0  0  0  0  0  0  0
   22.1937   12.5870   11.1140 C   0  0  0  0  0  0  0  0  0  0  0  0
   23.5549   12.7042   11.4934 C   0  0  0  0  0  0  0  0  0  0  0  0
   23.9484   13.6511   12.4065 C   0  0  0  0  0  0  0  0  0  0  0  0
   22.9961   14.5120   12.9177 C   0  0  0  0  0  0  0  0  0  0  0  0
   21.6477   14.3405   12.5561 C   0  0  0  0  0  0  0  0  0  0  0  0
   20.6131   15.1454   12.9147 N   0  0  0  0  0  0  0  0  0  0  0  0
   19.4548   14.6261   12.4629 C   0  0  0  0  0  0  0  0  0  0  0  0
   19.6674   13.3868   11.8499 C   0  0  0  0  0  0  0  0  0  0  0  0
   18.4019   12.5994   11.6856 C   0  0  0  0  0  0  0  0  0  0  0  0
   17.4015   13.0571   12.2559 O   0  0  0  0  0  0  0  0  0  0  0  0
   18.2676   11.4135   10.9672 N   0  0  0  0  0  0  0  0  0  0  0  0
   17.0691   10.6014   11.0541 C   0  0  0  0  0  0  0  0  0  0  0  0
   16.7010    9.7636   10.0008 C   0  0  0  0  0  0  0  0  0  0  0  0
   15.6327    8.8586   10.0879 C   0  0  0  0  0  0  0  0  0  0  0  0
   14.9703    8.7053   11.2871 C   0  0  0  0  0  0  0  0  0  0  0  0
   14.0705    7.6804   11.3800 O   0  0  0  0  0  0  0  0  0  0  0  0
   15.2805    9.5497   12.3512 C   0  0  0  0  0  0  0  0  0  0  0  0
   14.4957    9.3604   13.8794 Cl  0  0  0  0  0  0  0  0  0  0  0  0
   16.2932   10.5138   12.2230 C   0  0  0  0  0  0  0  0  0  0  0  0
   21.1361   13.3118   11.7285 C   0  0  0  0  0  0  0  0  0  0  0  0
  1  2  1  0
  2  3  1  0
  3  4  2  0
  3  5  1  0
  5  6  2  0
  6  7  1  0
  7  8  2  0
  8  9  1  0
  9 10  1  0
 10 11  1  0
 11 12  2  0
 12 13  1  0
 13 14  2  0
 13 15  1  0
 15 16  1  0
 16 17  2  0
 17 18  1  0
 18 19  2  0
 19 20  1  0
 19 21  1  0
 21 22  1  0
 21 23  2  0
 12 24  1  0
 24  5  1  0
 24  9  2  0
 23 16  1  0
M  END
>  <HIPPO ID>  (60) 
23738

>  <alias>  (60) 
None

>  <ref_mols>  (60) 
c0935a,c1271a

>  <submitter_email>  (60) 
None

>  <ref_pdb>  (60) 
c0270a

>  <inchikey>  (60) 
OTGDWBHLOVJBBA-UHFFFAOYSA-N

>  <generation_date>  (60) 
None

>  <original ID>  (60) 
OTGDWBHLOVJBBA-UHFFFAOYSA-N

>  <tags>  (60) 
[]

>  <exports>  (60) 
nan

>  <method>  (60) 
None

>  <submitter_name>  (60) 
None

>  <original SMILES>  (60) 
COC(=O)c1cccc2[nH]cc(C(=O)Nc3ccc(O)c(Cl)c3)c12

>  <ref_url>  (60) 
None

$$$$
KHSKXTDAALWPSY-UHFFFAOYSA-N
     RDKit          3D

 24 26  0  0  0  0  0  0  0  0999 V2000
   21.5851   15.3930    8.8654 C   0  0  0  0  0  0  0  0  0  0  0  0
   21.1702   14.2372    9.5707 O   0  0  0  0  0  0  0  0  0  0  0  0
   22.0195   13.1909    9.4203 C   0  0  0  0  0  0  0  0  0  0  0  0
   22.8709   13.1150    8.5558 O   0  0  0  0  0  0  0  0  0  0  0  0
   21.8332   12.2439   10.5618 C   0  0  0  0  0  0  0  0  0  0  0  0
   23.1254   11.7967   10.9090 C   0  0  0  0  0  0  0  0  0  0  0  0
   23.6673   12.1245   12.1410 C   0  0  0  0  0  0  0  0  0  0  0  0
   22.9229   12.8810   13.0322 C   0  0  0  0  0  0  0  0  0  0  0  0
   21.5873   13.1493   12.7078 C   0  0  0  0  0  0  0  0  0  0  0  0
   20.7113   13.9682   13.3530 N   0  0  0  0  0  0  0  0  0  0  0  0
   19.4842   13.8699   12.7824 C   0  0  0  0  0  0  0  0  0  0  0  0
   19.5035   12.8903   11.7902 C   0  0  0  0  0  0  0  0  0  0  0  0
   18.1781   12.3763   11.3643 C   0  0  0  0  0  0  0  0  0  0  0  0
   17.1693   13.0160   11.6763 O   0  0  0  0  0  0  0  0  0  0  0  0
   18.0525   11.1350   10.7570 N   0  0  0  0  0  0  0  0  0  0  0  0
   16.8392   10.3731   10.8655 C   0  0  0  0  0  0  0  0  0  0  0  0
   16.4111    9.5696    9.8083 C   0  0  0  0  0  0  0  0  0  0  0  0
   15.3585    8.6603    9.9578 C   0  0  0  0  0  0  0  0  0  0  0  0
   14.7733    8.4866   11.1954 C   0  0  0  0  0  0  0  0  0  0  0  0
   13.8810    7.4653   11.3334 O   0  0  0  0  0  0  0  0  0  0  0  0
   15.1213    9.3138   12.2521 C   0  0  0  0  0  0  0  0  0  0  0  0
   16.1282   10.2667   12.0740 C   0  0  0  0  0  0  0  0  0  0  0  0
   16.5128   10.9479   13.1633 F   0  0  0  0  0  0  0  0  0  0  0  0
   20.9231   12.6414   11.5784 C   0  0  0  0  0  0  0  0  0  0  0  0
  1  2  1  0
  2  3  1  0
  3  4  2  0
  3  5  1  0
  5  6  2  0
  6  7  1  0
  7  8  2  0
  8  9  1  0
  9 10  1  0
 10 11  1  0
 11 12  2  0
 12 13  1  0
 13 14  2  0
 13 15  1  0
 15 16  1  0
 16 17  2  0
 17 18  1  0
 18 19  2  0
 19 20  1  0
 19 21  1  0
 21 22  2  0
 22 23  1  0
 12 24  1  0
 24  5  1  0
 24  9  2  0
 22 16  1  0
M  END
>  <HIPPO ID>  (61) 
23748

>  <alias>  (61) 
None

>  <ref_mols>  (61) 
c0935a,c1271a

>  <submitter_email>  (61) 
None

>  <ref_pdb>  (61) 
c0270a

>  <inchikey>  (61) 
KHSKXTDAALWPSY-UHFFFAOYSA-N

>  <generation_date>  (61) 
None

>  <original ID>  (61) 
KHSKXTDAALWPSY-UHFFFAOYSA-N

>  <tags>  (61) 
[]

>  <exports>  (61) 
nan

>  <method>  (61) 
None

>  <submitter_name>  (61) 
None

>  <original SMILES>  (61) 
COC(=O)c1cccc2[nH]cc(C(=O)Nc3ccc(O)cc3F)c12

>  <ref_url>  (61) 
None

$$$$
YDTJDJNSYPCYDS-UHFFFAOYSA-N
     RDKit          3D

 25 27  0  0  0  0  0  0  0  0999 V2000
   23.7942   13.2785    7.7392 C   0  0  0  0  0  0  0  0  0  0  0  0
   23.1670   12.4551    8.7210 O   0  0  0  0  0  0  0  0  0  0  0  0
   22.1864   13.0295    9.4496 C   0  0  0  0  0  0  0  0  0  0  0  0
   21.6550   14.1039    9.2182 O   0  0  0  0  0  0  0  0  0  0  0  0
   21.8895   12.2209   10.6792 C   0  0  0  0  0  0  0  0  0  0  0  0
   23.1320   11.7990   11.2117 C   0  0  0  0  0  0  0  0  0  0  0  0
   23.5952   12.2728   12.4247 C   0  0  0  0  0  0  0  0  0  0  0  0
   22.8175   13.1701   13.1312 C   0  0  0  0  0  0  0  0  0  0  0  0
   21.5153   13.4089   12.6765 C   0  0  0  0  0  0  0  0  0  0  0  0
   20.6018   14.2797   13.1857 N   0  0  0  0  0  0  0  0  0  0  0  0
   19.3969   14.0533   12.6113 C   0  0  0  0  0  0  0  0  0  0  0  0
   19.4873   12.9816   11.7192 C   0  0  0  0  0  0  0  0  0  0  0  0
   18.1843   12.3636   11.3558 C   0  0  0  0  0  0  0  0  0  0  0  0
   17.1525   12.9287   11.7371 O   0  0  0  0  0  0  0  0  0  0  0  0
   18.0890   11.1222   10.7404 N   0  0  0  0  0  0  0  0  0  0  0  0
   16.8886   10.3418   10.8522 C   0  0  0  0  0  0  0  0  0  0  0  0
   16.4261    9.5693    9.7983 C   0  0  0  0  0  0  0  0  0  0  0  0
   15.3415    8.7029    9.9586 C   0  0  0  0  0  0  0  0  0  0  0  0
   14.7542    8.4885   11.2053 C   0  0  0  0  0  0  0  0  0  0  0  0
   13.7509    7.5680   11.1246 O   0  0  0  0  0  0  0  0  0  0  0  0
   13.5728    6.6313   12.1655 C   0  0  0  0  0  0  0  0  0  0  0  0
   15.1935    9.2707   12.2785 C   0  0  0  0  0  0  0  0  0  0  0  0
   14.5079    9.1783   14.2689 I   0  0  0  0  0  0  0  0  0  0  0  0
   16.2159   10.2251   12.0768 C   0  0  0  0  0  0  0  0  0  0  0  0
   20.9250   12.7865   11.5596 C   0  0  0  0  0  0  0  0  0  0  0  0
  1  2  1  0
  2  3  1  0
  3  4  2  0
  3  5  1  0
  5  6  2  0
  6  7  1  0
  7  8  2  0
  8  9  1  0
  9 10  1  0
 10 11  1  0
 11 12  2  0
 12 13  1  0
 13 14  2  0
 13 15  1  0
 15 16  1  0
 16 17  2  0
 17 18  1  0
 18 19  2  0
 19 20  1  0
 20 21  1  0
 19 22  1  0
 22 23  1  0
 22 24  2  0
 12 25  1  0
 25  5  1  0
 25  9  2  0
 24 16  1  0
M  END
>  <HIPPO ID>  (62) 
23799

>  <alias>  (62) 
None

>  <ref_mols>  (62) 
c0935a,c1271a

>  <submitter_email>  (62) 
None

>  <ref_pdb>  (62) 
c0270a

>  <inchikey>  (62) 
YDTJDJNSYPCYDS-UHFFFAOYSA-N

>  <generation_date>  (62) 
None

>  <original ID>  (62) 
YDTJDJNSYPCYDS-UHFFFAOYSA-N

>  <tags>  (62) 
[]

>  <exports>  (62) 
nan

>  <method>  (62) 
None

>  <submitter_name>  (62) 
None

>  <original SMILES>  (62) 
COC(=O)c1cccc2[nH]cc(C(=O)Nc3ccc(OC)c(I)c3)c12

>  <ref_url>  (62) 
None

$$$$
SMPZWEYUIZTKQU-UHFFFAOYSA-N
     RDKit          3D

 25 27  0  0  0  0  0  0  0  0999 V2000
   23.8646   12.8054    7.8680 C   0  0  0  0  0  0  0  0  0  0  0  0
   22.6727   13.5820    8.1068 O   0  0  0  0  0  0  0  0  0  0  0  0
   21.8806   13.6937    9.1949 C   0  0  0  0  0  0  0  0  0  0  0  0
   20.7978   14.2619    9.0468 O   0  0  0  0  0  0  0  0  0  0  0  0
   22.2267   13.2928   10.5731 C   0  0  0  0  0  0  0  0  0  0  0  0
   23.6117   13.2366   10.8536 C   0  0  0  0  0  0  0  0  0  0  0  0
   24.1162   13.5928   12.0821 C   0  0  0  0  0  0  0  0  0  0  0  0
   23.2549   14.0609   13.0467 C   0  0  0  0  0  0  0  0  0  0  0  0
   21.8798   14.0163   12.8012 C   0  0  0  0  0  0  0  0  0  0  0  0
   20.9134   14.5128   13.6177 N   0  0  0  0  0  0  0  0  0  0  0  0
   19.6956   14.2881   13.0886 C   0  0  0  0  0  0  0  0  0  0  0  0
   19.8000   13.4600   11.9730 C   0  0  0  0  0  0  0  0  0  0  0  0
   18.4650   12.8506   11.5873 C   0  0  0  0  0  0  0  0  0  0  0  0
   17.4421   13.4253   11.9830 O   0  0  0  0  0  0  0  0  0  0  0  0
   18.3395   11.5992   10.9506 N   0  0  0  0  0  0  0  0  0  0  0  0
   19.5176   11.0208   10.3738 C   0  0  0  0  0  0  0  0  0  0  0  0
   17.1308   10.7783   11.0438 C   0  0  0  0  0  0  0  0  0  0  0  0
   16.7762    9.8718   10.0375 C   0  0  0  0  0  0  0  0  0  0  0  0
   15.7135    8.9690   10.1385 C   0  0  0  0  0  0  0  0  0  0  0  0
   15.0213    8.8763   11.3248 C   0  0  0  0  0  0  0  0  0  0  0  0
   14.0985    7.8807   11.4726 O   0  0  0  0  0  0  0  0  0  0  0  0
   15.3028    9.7703   12.3616 C   0  0  0  0  0  0  0  0  0  0  0  0
   14.5491    9.7387   13.6593 C   0  0  0  0  0  0  0  0  0  0  0  0
   16.3166   10.7536   12.1849 C   0  0  0  0  0  0  0  0  0  0  0  0
   21.2640   13.4998   11.6437 C   0  0  0  0  0  0  0  0  0  0  0  0
  1  2  1  0
  2  3  1  0
  3  4  2  0
  3  5  1  0
  5  6  2  0
  6  7  1  0
  7  8  2  0
  8  9  1  0
  9 10  1  0
 10 11  1  0
 11 12  2  0
 12 13  1  0
 13 14  2  0
 13 15  1  0
 15 16  1  0
 15 17  1  0
 17 18  2  0
 18 19  1  0
 19 20  2  0
 20 21  1  0
 20 22  1  0
 22 23  1  0
 22 24  2  0
 12 25  1  0
 25  5  1  0
 25  9  2  0
 24 17  1  0
M  END
>  <HIPPO ID>  (63) 
23804

>  <alias>  (63) 
None

>  <ref_mols>  (63) 
c0935a,c1271a

>  <submitter_email>  (63) 
None

>  <ref_pdb>  (63) 
c0270a

>  <inchikey>  (63) 
SMPZWEYUIZTKQU-UHFFFAOYSA-N

>  <generation_date>  (63) 
None

>  <original ID>  (63) 
SMPZWEYUIZTKQU-UHFFFAOYSA-N

>  <tags>  (63) 
[]

>  <exports>  (63) 
nan

>  <method>  (63) 
None

>  <submitter_name>  (63) 
None

>  <original SMILES>  (63) 
COC(=O)c1cccc2[nH]cc(C(=O)N(C)c3ccc(O)c(C)c3)c12

>  <ref_url>  (63) 
None

$$$$
RPKCFMBVJUKSKQ-UHFFFAOYSA-N
     RDKit          3D

 25 27  0  0  0  0  0  0  0  0999 V2000
   23.7114   13.5935    7.8536 C   0  0  0  0  0  0  0  0  0  0  0  0
   23.1216   12.7121    8.7991 O   0  0  0  0  0  0  0  0  0  0  0  0
   22.0247   13.1532    9.4452 C   0  0  0  0  0  0  0  0  0  0  0  0
   21.3694   14.1389    9.1406 O   0  0  0  0  0  0  0  0  0  0  0  0
   21.7432   12.2773   10.6429 C   0  0  0  0  0  0  0  0  0  0  0  0
   22.9672   11.7736   11.1408 C   0  0  0  0  0  0  0  0  0  0  0  0
   23.4810   12.2267   12.3430 C   0  0  0  0  0  0  0  0  0  0  0  0
   22.7523   13.1392   13.0862 C   0  0  0  0  0  0  0  0  0  0  0  0
   21.4395   13.4070   12.6804 C   0  0  0  0  0  0  0  0  0  0  0  0
   20.5426   14.2658   13.2389 N   0  0  0  0  0  0  0  0  0  0  0  0
   19.3196   14.0592   12.6913 C   0  0  0  0  0  0  0  0  0  0  0  0
   19.3852   13.0212   11.7611 C   0  0  0  0  0  0  0  0  0  0  0  0
   18.0804   12.4292   11.3718 C   0  0  0  0  0  0  0  0  0  0  0  0
   17.0510   13.0628   11.6163 O   0  0  0  0  0  0  0  0  0  0  0  0
   18.0018   11.1396   10.8685 N   0  0  0  0  0  0  0  0  0  0  0  0
   16.7875   10.3621   10.9477 C   0  0  0  0  0  0  0  0  0  0  0  0
   16.4219    9.5971    9.8388 C   0  0  0  0  0  0  0  0  0  0  0  0
   15.3613    8.6881    9.8770 C   0  0  0  0  0  0  0  0  0  0  0  0
   14.7124    8.4188   11.0649 C   0  0  0  0  0  0  0  0  0  0  0  0
   13.7683    7.4351   11.0069 O   0  0  0  0  0  0  0  0  0  0  0  0
   13.6879    6.5841   12.1438 C   0  0  0  0  0  0  0  0  0  0  0  0
   15.0148    9.1922   12.1782 C   0  0  0  0  0  0  0  0  0  0  0  0
   16.0082   10.1910   12.1136 C   0  0  0  0  0  0  0  0  0  0  0  0
   16.2848   11.0282   13.6012 Cl  0  0  0  0  0  0  0  0  0  0  0  0
   20.8131   12.8195   11.5667 C   0  0  0  0  0  0  0  0  0  0  0  0
  1  2  1  0
  2  3  1  0
  3  4  2  0
  3  5  1  0
  5  6  2  0
  6  7  1  0
  7  8  2  0
  8  9  1  0
  9 10  1  0
 10 11  1  0
 11 12  2  0
 12 13  1  0
 13 14  2  0
 13 15  1  0
 15 16  1  0
 16 17  2  0
 17 18  1  0
 18 19  2  0
 19 20  1  0
 20 21  1  0
 19 22  1  0
 22 23  2  0
 23 24  1  0
 12 25  1  0
 25  5  1  0
 25  9  2  0
 23 16  1  0
M  END
>  <HIPPO ID>  (64) 
23805

>  <alias>  (64) 
None

>  <ref_mols>  (64) 
c0935a,c1271a

>  <submitter_email>  (64) 
None

>  <ref_pdb>  (64) 
c0270a

>  <inchikey>  (64) 
RPKCFMBVJUKSKQ-UHFFFAOYSA-N

>  <generation_date>  (64) 
None

>  <original ID>  (64) 
RPKCFMBVJUKSKQ-UHFFFAOYSA-N

>  <tags>  (64) 
[]

>  <exports>  (64) 
nan

>  <method>  (64) 
None

>  <submitter_name>  (64) 
None

>  <original SMILES>  (64) 
COC(=O)c1cccc2[nH]cc(C(=O)Nc3ccc(OC)cc3Cl)c12

>  <ref_url>  (64) 
None

$$$$
BMQSVHRACPQRCS-UHFFFAOYSA-N
     RDKit          3D

 26 28  0  0  0  0  0  0  0  0999 V2000
   23.3210   11.9958    9.0517 C   0  0  0  0  0  0  0  0  0  0  0  0
   23.2025   12.6027   10.3278 O   0  0  0  0  0  0  0  0  0  0  0  0
   21.9764   12.6183   10.9046 C   0  0  0  0  0  0  0  0  0  0  0  0
   20.9495   12.1229   10.4793 O   0  0  0  0  0  0  0  0  0  0  0  0
   22.0858   13.4960   12.0877 C   0  0  0  0  0  0  0  0  0  0  0  0
   23.3885   13.6572   12.6348 C   0  0  0  0  0  0  0  0  0  0  0  0
   23.6969   14.6900   13.4968 C   0  0  0  0  0  0  0  0  0  0  0  0
   22.7209   15.6112   13.8237 C   0  0  0  0  0  0  0  0  0  0  0  0
   21.4192   15.4049   13.3471 C   0  0  0  0  0  0  0  0  0  0  0  0
   20.3378   16.2123   13.5611 N   0  0  0  0  0  0  0  0  0  0  0  0
   19.2323   15.6369   13.0419 C   0  0  0  0  0  0  0  0  0  0  0  0
   19.5533   14.3978   12.4889 C   0  0  0  0  0  0  0  0  0  0  0  0
   18.4022   13.5421   12.1391 C   0  0  0  0  0  0  0  0  0  0  0  0
   17.2651   13.9600   12.3809 O   0  0  0  0  0  0  0  0  0  0  0  0
   18.5785   12.3036   11.5689 N   0  0  0  0  0  0  0  0  0  0  0  0
   17.5248   11.3596   11.4769 C   0  0  0  0  0  0  0  0  0  0  0  0
   17.5160   10.4491   10.4352 C   0  0  0  0  0  0  0  0  0  0  0  0
   16.4523    9.5554   10.2755 C   0  0  0  0  0  0  0  0  0  0  0  0
   15.4754    9.4496   11.2559 C   0  0  0  0  0  0  0  0  0  0  0  0
   14.4942    8.5134   11.1204 O   0  0  0  0  0  0  0  0  0  0  0  0
   15.5140   10.2789   12.3752 C   0  0  0  0  0  0  0  0  0  0  0  0
   14.5021   10.2042   13.4803 C   0  0  0  0  0  0  0  0  0  0  0  0
   14.9135   10.8078   14.6361 F   0  0  0  0  0  0  0  0  0  0  0  0
   14.1759    8.9354   13.8617 F   0  0  0  0  0  0  0  0  0  0  0  0
   16.5131   11.2679   12.4403 C   0  0  0  0  0  0  0  0  0  0  0  0
   21.0105   14.3133   12.5463 C   0  0  0  0  0  0  0  0  0  0  0  0
  1  2  1  0
  2  3  1  0
  3  4  2  0
  3  5  1  0
  5  6  2  0
  6  7  1  0
  7  8  2  0
  8  9  1  0
  9 10  1  0
 10 11  1  0
 11 12  2  0
 12 13  1  0
 13 14  2  0
 13 15  1  0
 15 16  1  0
 16 17  2  0
 17 18  1  0
 18 19  2  0
 19 20  1  0
 19 21  1  0
 21 22  1  0
 22 23  1  0
 22 24  1  0
 21 25  2  0
 12 26  1  0
 26  5  1  0
 26  9  2  0
 25 16  1  0
M  END
>  <HIPPO ID>  (65) 
23939

>  <alias>  (65) 
None

>  <ref_mols>  (65) 
c0935a,c1271a

>  <submitter_email>  (65) 
None

>  <ref_pdb>  (65) 
c0270a

>  <inchikey>  (65) 
BMQSVHRACPQRCS-UHFFFAOYSA-N

>  <generation_date>  (65) 
None

>  <original ID>  (65) 
BMQSVHRACPQRCS-UHFFFAOYSA-N

>  <tags>  (65) 
[]

>  <exports>  (65) 
nan

>  <method>  (65) 
None

>  <submitter_name>  (65) 
None

>  <original SMILES>  (65) 
COC(=O)c1cccc2[nH]cc(C(=O)Nc3ccc(O)c(C(F)F)c3)c12

>  <ref_url>  (65) 
None

$$$$
QFISLZJPWZXAHS-SSDOTTSWSA-N
     RDKit          3D

 20 21  0  0  0  0  0  0  0  0999 V2000
    5.6922    3.8440   14.0186 C   0  0  0  0  0  0  0  0  0  0  0  0
    6.7388    4.7802   14.2533 O   0  0  0  0  0  0  0  0  0  0  0  0
    7.9156    4.3766   14.7670 C   0  0  0  0  0  0  0  0  0  0  0  0
    8.2461    3.2904   15.2070 O   0  0  0  0  0  0  0  0  0  0  0  0
    8.8599    5.4948   14.6388 C   0  0  0  0  0  0  0  0  0  0  0  0
    9.7859    5.3118   13.6905 C   0  0  0  0  0  0  0  0  0  0  0  0
    9.8723    4.1608   12.9237 O   0  0  0  0  0  0  0  0  0  0  0  0
   10.7346    6.4450   13.4767 C   0  0  0  0  0  0  0  0  0  0  0  0
   11.5731    6.3178   12.5917 O   0  0  0  0  0  0  0  0  0  0  0  0
   10.6332    7.5686   14.2757 N   0  0  0  0  0  0  0  0  0  0  0  0
    9.6781    7.6286   15.1407 C   0  0  0  0  0  0  0  0  0  0  0  0
    8.7653    6.6465   15.4067 N   0  0  0  0  0  0  0  0  0  0  0  0
    7.8197    6.7976   16.5083 C   0  0  0  0  0  0  0  0  0  0  0  0
    6.4483    7.2583   16.0133 C   0  0  1  0  0  0  0  0  0  0  0  0
    5.3620    6.6389   16.8615 C   0  0  0  0  0  0  0  0  0  0  0  0
    5.3742    7.3333   18.2146 C   0  0  0  0  0  0  0  0  0  0  0  0
    5.6777    9.0208   17.8334 S   0  0  0  0  0  6  0  0  0  0  0  0
    6.8186    9.4670   18.5943 O   0  0  0  0  0  0  0  0  0  0  0  0
    4.4222    9.7412   17.8499 O   0  0  0  0  0  0  0  0  0  0  0  0
    6.1988    8.7415   16.1673 C   0  0  0  0  0  0  0  0  0  0  0  0
  1  2  1  0
  2  3  1  0
  3  4  2  0
  3  5  1  0
  5  6  2  0
  6  7  1  0
  6  8  1  0
  8  9  2  0
  8 10  1  0
 10 11  2  0
 11 12  1  0
 12 13  1  0
 14 13  1  1
 14 15  1  0
 15 16  1  0
 16 17  1  0
 17 18  2  0
 17 19  2  0
 17 20  1  0
 12  5  1  0
 20 14  1  0
M  END
>  <HIPPO ID>  (66) 
32463

>  <alias>  (66) 
None

>  <ref_mols>  (66) 
c0314a,c1182a

>  <submitter_email>  (66) 
None

>  <ref_pdb>  (66) 
c0300a

>  <inchikey>  (66) 
QFISLZJPWZXAHS-SSDOTTSWSA-N

>  <generation_date>  (66) 
None

>  <original ID>  (66) 
QFISLZJPWZXAHS-SSDOTTSWSA-N

>  <tags>  (66) 
[]

>  <exports>  (66) 
nan

>  <method>  (66) 
None

>  <submitter_name>  (66) 
None

>  <original SMILES>  (66) 
COC(=O)c1c(O)c(=O)ncn1C[C@H]1CCS(=O)(=O)C1

>  <ref_url>  (66) 
None

$$$$
QFISLZJPWZXAHS-SSDOTTSWSA-N
     RDKit          3D

 20 21  0  0  0  0  0  0  0  0999 V2000
    5.7952    3.8773   14.1823 C   0  0  0  0  0  0  0  0  0  0  0  0
    7.0692    4.4441   13.9288 O   0  0  0  0  0  0  0  0  0  0  0  0
    7.9053    4.5382   14.9782 C   0  0  0  0  0  0  0  0  0  0  0  0
    7.8174    4.0407   16.0849 O   0  0  0  0  0  0  0  0  0  0  0  0
    8.9089    5.5598   14.6813 C   0  0  0  0  0  0  0  0  0  0  0  0
    9.7974    5.2831   13.7205 C   0  0  0  0  0  0  0  0  0  0  0  0
    9.8474    4.0732   13.0424 O   0  0  0  0  0  0  0  0  0  0  0  0
   10.7741    6.3736   13.4137 C   0  0  0  0  0  0  0  0  0  0  0  0
   11.5655    6.1792   12.4984 O   0  0  0  0  0  0  0  0  0  0  0  0
   10.7548    7.5301   14.1706 N   0  0  0  0  0  0  0  0  0  0  0  0
    9.8384    7.6694   15.0658 C   0  0  0  0  0  0  0  0  0  0  0  0
    8.8974    6.7457   15.4050 N   0  0  0  0  0  0  0  0  0  0  0  0
    7.9866    7.0011   16.5248 C   0  0  0  0  0  0  0  0  0  0  0  0
    6.5596    7.2674   16.0406 C   0  0  1  0  0  0  0  0  0  0  0  0
    5.5483    6.5808   16.9327 C   0  0  0  0  0  0  0  0  0  0  0  0
    5.4768    7.3312   18.2514 C   0  0  0  0  0  0  0  0  0  0  0  0
    5.6675    9.0201   17.8128 S   0  0  0  0  0  6  0  0  0  0  0  0
    4.3778    9.6759   17.8344 O   0  0  0  0  0  0  0  0  0  0  0  0
    6.7929    9.5453   18.5449 O   0  0  0  0  0  0  0  0  0  0  0  0
    6.1759    8.7269   16.1443 C   0  0  0  0  0  0  0  0  0  0  0  0
  1  2  1  0
  2  3  1  0
  3  4  2  0
  3  5  1  0
  5  6  2  0
  6  7  1  0
  6  8  1  0
  8  9  2  0
  8 10  1  0
 10 11  2  0
 11 12  1  0
 12 13  1  0
 14 13  1  1
 14 15  1  0
 15 16  1  0
 16 17  1  0
 17 18  2  0
 17 19  2  0
 17 20  1  0
 12  5  1  0
 20 14  1  0
M  END
>  <HIPPO ID>  (67) 
32464

>  <alias>  (67) 
None

>  <ref_mols>  (67) 
c0314a,c1182a

>  <submitter_email>  (67) 
None

>  <ref_pdb>  (67) 
c0300a

>  <inchikey>  (67) 
QFISLZJPWZXAHS-SSDOTTSWSA-N

>  <generation_date>  (67) 
None

>  <original ID>  (67) 
QFISLZJPWZXAHS-SSDOTTSWSA-N

>  <tags>  (67) 
[]

>  <exports>  (67) 
nan

>  <method>  (67) 
None

>  <submitter_name>  (67) 
None

>  <original SMILES>  (67) 
COC(=O)c1c(O)c(=O)ncn1C[C@H]1CCS(=O)(=O)C1

>  <ref_url>  (67) 
None

$$$$
MFTDJDNQPCXKOX-UHFFFAOYSA-N
     RDKit          3D

 18 20  0  0  0  0  0  0  0  0999 V2000
   18.0891    4.6979   11.7130 O   0  0  0  0  0  0  0  0  0  0  0  0
   17.4212    4.2034   12.6220 C   0  0  0  0  0  0  0  0  0  0  0  0
   17.9707    4.2329   14.0012 C   0  0  0  0  0  0  0  0  0  0  0  0
   17.3453    3.5870   14.9918 C   0  0  0  0  0  0  0  0  0  0  0  0
   18.0382    3.5136   16.7167 Br  0  0  0  0  0  0  0  0  0  0  0  0
   16.1030    2.9097   14.7442 C   0  0  0  0  0  0  0  0  0  0  0  0
   15.5682    2.9423   13.5213 C   0  0  0  0  0  0  0  0  0  0  0  0
   16.1851    3.5917   12.4682 N   0  0  0  0  0  0  0  0  0  0  0  0
   15.6074    3.4773   11.1266 C   0  0  0  0  0  0  0  0  0  0  0  0
   14.8174    4.6660   10.7119 C   0  0  0  0  0  0  0  0  0  0  0  0
   13.7509    4.5332    9.9122 N   0  0  0  0  0  0  0  0  0  0  0  0
   13.3934    5.8416    9.6305 O   0  0  0  0  0  0  0  0  0  0  0  0
   14.3021    6.6425   10.2570 C   0  0  0  0  0  0  0  0  0  0  0  0
   14.2008    8.1749   10.2336 C   0  0  0  0  0  0  0  0  0  0  0  0
   13.5461    8.8067    8.9788 C   0  0  0  0  0  0  0  0  0  0  0  0
   14.5252    9.9679    9.1275 C   0  0  0  0  0  0  0  0  0  0  0  0
   15.4075    9.0425    9.9373 C   0  0  0  0  0  0  0  0  0  0  0  0
   15.1772    5.9676   10.9744 N   0  0  0  0  0  0  0  0  0  0  0  0
  1  2  2  0
  2  3  1  0
  3  4  2  0
  4  5  1  0
  4  6  1  0
  6  7  2  0
  7  8  1  0
  8  9  1  0
  9 10  1  0
 10 11  2  0
 11 12  1  0
 12 13  1  0
 13 14  1  0
 14 15  1  0
 15 16  1  0
 16 17  1  0
 13 18  2  0
  8  2  1  0
 18 10  1  0
 17 14  1  0
M  END
>  <HIPPO ID>  (68) 
35397

>  <alias>  (68) 
None

>  <ref_mols>  (68) 
c0316a,c1091a

>  <submitter_email>  (68) 
None

>  <ref_pdb>  (68) 
c0300a

>  <inchikey>  (68) 
MFTDJDNQPCXKOX-UHFFFAOYSA-N

>  <generation_date>  (68) 
None

>  <original ID>  (68) 
MFTDJDNQPCXKOX-UHFFFAOYSA-N

>  <tags>  (68) 
[]

>  <exports>  (68) 
nan

>  <method>  (68) 
None

>  <submitter_name>  (68) 
None

>  <original SMILES>  (68) 
O=c1cc(Br)ccn1Cc1noc(C2CCC2)n1

>  <ref_url>  (68) 
None

$$$$
WMJINEFZISCGLS-INIZCTEOSA-N
     RDKit          3D

 23 26  0  0  0  0  0  0  0  0999 V2000
   13.9030    9.3454   19.5612 C   0  0  0  0  0  0  0  0  0  0  0  0
   15.2378    9.1903   18.8471 C   0  0  0  0  0  0  0  0  0  0  0  0
   15.2818    9.9638   17.5769 C   0  0  0  0  0  0  0  0  0  0  0  0
   14.9622    9.5262   16.2768 C   0  0  0  0  0  0  0  0  0  0  0  0
   15.0875   10.6342   15.4561 C   0  0  0  0  0  0  0  0  0  0  0  0
   14.8274   10.7527   14.0176 C   0  0  0  0  0  0  0  0  0  0  0  0
   14.3765   11.9619   13.4733 C   0  0  0  0  0  0  0  0  0  0  0  0
   14.3618   12.1960   12.0982 C   0  0  0  0  0  0  0  0  0  0  0  0
   13.8436   13.3968   11.6508 N   0  0  0  0  0  0  0  0  0  0  0  0
   14.6360   11.1392   11.2636 C   0  0  0  0  0  0  0  0  0  0  0  0
   14.9045    9.8992   11.7798 C   0  0  0  0  0  0  0  0  0  0  0  0
   15.0215    9.6759   13.1450 C   0  0  0  0  0  0  0  0  0  0  0  0
   15.0295    8.9549   10.8033 O   0  0  0  0  0  0  0  0  0  0  0  0
   14.9243    9.7629    9.6122 C   0  0  0  0  0  0  0  0  0  0  0  0
   14.6043   11.1424    9.9017 O   0  0  0  0  0  0  0  0  0  0  0  0
   15.5742   11.6376   16.2945 N   0  0  0  0  0  0  0  0  0  0  0  0
   16.0206   12.9965   15.9447 C   0  0  2  0  0  0  0  0  0  0  0  0
   17.3131   13.4479   16.6399 C   0  0  0  0  0  0  0  0  0  0  0  0
   17.1007   14.0138   18.0404 C   0  0  0  0  0  0  0  0  0  0  0  0
   15.7667   14.7367   18.1902 C   0  0  0  0  0  0  0  0  0  0  0  0
   15.1614   15.0690   16.8391 C   0  0  0  0  0  0  0  0  0  0  0  0
   14.9028   13.8839   16.0984 O   0  0  0  0  0  0  0  0  0  0  0  0
   15.6253   11.2504   17.5910 N   0  0  0  0  0  0  0  0  0  0  0  0
  1  2  1  0
  2  3  1  0
  3  4  1  0
  4  5  2  0
  5  6  1  0
  6  7  2  0
  7  8  1  0
  8  9  1  0
  8 10  2  0
 10 11  1  0
 11 12  2  0
 11 13  1  0
 13 14  1  0
 14 15  1  0
  5 16  1  0
 17 16  1  1
 17 18  1  0
 18 19  1  0
 19 20  1  0
 20 21  1  0
 21 22  1  0
 16 23  1  0
 23  3  2  0
 12  6  1  0
 22 17  1  0
 15 10  1  0
M  END
>  <HIPPO ID>  (69) 
46516

>  <alias>  (69) 
None

>  <ref_mols>  (69) 
c0864a,c1338a

>  <submitter_email>  (69) 
None

>  <ref_pdb>  (69) 
c0300a

>  <inchikey>  (69) 
WMJINEFZISCGLS-INIZCTEOSA-N

>  <generation_date>  (69) 
None

>  <original ID>  (69) 
WMJINEFZISCGLS-INIZCTEOSA-N

>  <tags>  (69) 
[]

>  <exports>  (69) 
nan

>  <method>  (69) 
None

>  <submitter_name>  (69) 
None

>  <original SMILES>  (69) 
CCc1cc(-c2cc(N)c3c(c2)OCO3)n([C@@H]2CCCCO2)n1

>  <ref_url>  (69) 
None

$$$$
WMJINEFZISCGLS-MRXNPFEDSA-N
     RDKit          3D

 23 26  0  0  0  0  0  0  0  0999 V2000
   16.9279    8.9646   19.0912 C   0  0  0  0  0  0  0  0  0  0  0  0
   15.4954    9.3483   18.7599 C   0  0  0  0  0  0  0  0  0  0  0  0
   15.4018   10.1800   17.5282 C   0  0  0  0  0  0  0  0  0  0  0  0
   15.1699    9.7594   16.2100 C   0  0  0  0  0  0  0  0  0  0  0  0
   15.1108   10.9055   15.4260 C   0  0  0  0  0  0  0  0  0  0  0  0
   14.8703   10.9746   13.9733 C   0  0  0  0  0  0  0  0  0  0  0  0
   14.3954   12.1287   13.3406 C   0  0  0  0  0  0  0  0  0  0  0  0
   14.3042   12.2415   11.9489 C   0  0  0  0  0  0  0  0  0  0  0  0
   13.6721   13.3432   11.4138 N   0  0  0  0  0  0  0  0  0  0  0  0
   14.6098   11.1385   11.1900 C   0  0  0  0  0  0  0  0  0  0  0  0
   14.9250    9.9528   11.7891 C   0  0  0  0  0  0  0  0  0  0  0  0
   15.0722    9.8428   13.1645 C   0  0  0  0  0  0  0  0  0  0  0  0
   15.0427    8.9412   10.8812 O   0  0  0  0  0  0  0  0  0  0  0  0
   14.9097    9.6603    9.6362 C   0  0  0  0  0  0  0  0  0  0  0  0
   14.5623   11.0473    9.8312 O   0  0  0  0  0  0  0  0  0  0  0  0
   15.3723   11.9485   16.3218 N   0  0  0  0  0  0  0  0  0  0  0  0
   15.3421   13.4131   16.1205 C   0  0  1  0  0  0  0  0  0  0  0  0
   15.5977   14.2306   17.4006 C   0  0  0  0  0  0  0  0  0  0  0  0
   15.5482   15.7272   17.1129 C   0  0  0  0  0  0  0  0  0  0  0  0
   16.4853   16.0704   15.9678 C   0  0  0  0  0  0  0  0  0  0  0  0
   16.1898   15.1844   14.7710 C   0  0  0  0  0  0  0  0  0  0  0  0
   16.2909   13.7972   15.1031 O   0  0  0  0  0  0  0  0  0  0  0  0
   15.5114   11.5025   17.5979 N   0  0  0  0  0  0  0  0  0  0  0  0
  1  2  1  0
  2  3  1  0
  3  4  1  0
  4  5  2  0
  5  6  1  0
  6  7  2  0
  7  8  1  0
  8  9  1  0
  8 10  2  0
 10 11  1  0
 11 12  2  0
 11 13  1  0
 13 14  1  0
 14 15  1  0
  5 16  1  0
 17 16  1  1
 17 18  1  0
 18 19  1  0
 19 20  1  0
 20 21  1  0
 21 22  1  0
 16 23  1  0
 23  3  2  0
 12  6  1  0
 22 17  1  0
 15 10  1  0
M  END
>  <HIPPO ID>  (70) 
46517

>  <alias>  (70) 
None

>  <ref_mols>  (70) 
c0864a,c1338a

>  <submitter_email>  (70) 
None

>  <ref_pdb>  (70) 
c0300a

>  <inchikey>  (70) 
WMJINEFZISCGLS-MRXNPFEDSA-N

>  <generation_date>  (70) 
None

>  <original ID>  (70) 
WMJINEFZISCGLS-MRXNPFEDSA-N

>  <tags>  (70) 
[]

>  <exports>  (70) 
nan

>  <method>  (70) 
None

>  <submitter_name>  (70) 
None

>  <original SMILES>  (70) 
CCc1cc(-c2cc(N)c3c(c2)OCO3)n([C@H]2CCCCO2)n1

>  <ref_url>  (70) 
None

$$$$
WMJINEFZISCGLS-INIZCTEOSA-N
     RDKit          3D

 23 26  0  0  0  0  0  0  0  0999 V2000
   16.7791    8.9449   19.2618 C   0  0  0  0  0  0  0  0  0  0  0  0
   15.3519    9.2254   18.8175 C   0  0  0  0  0  0  0  0  0  0  0  0
   15.2995   10.0248   17.5629 C   0  0  0  0  0  0  0  0  0  0  0  0
   15.0372    9.5787   16.2534 C   0  0  0  0  0  0  0  0  0  0  0  0
   15.0763   10.7023   15.4424 C   0  0  0  0  0  0  0  0  0  0  0  0
   14.8400   10.8004   13.9948 C   0  0  0  0  0  0  0  0  0  0  0  0
   14.3722   11.9844   13.4112 C   0  0  0  0  0  0  0  0  0  0  0  0
   14.3488   12.1807   12.0292 C   0  0  0  0  0  0  0  0  0  0  0  0
   13.7927   13.3525   11.5550 N   0  0  0  0  0  0  0  0  0  0  0  0
   14.6418   11.1081   11.2237 C   0  0  0  0  0  0  0  0  0  0  0  0
   14.9241    9.8873   11.7750 C   0  0  0  0  0  0  0  0  0  0  0  0
   15.0495    9.7057   13.1468 C   0  0  0  0  0  0  0  0  0  0  0  0
   15.0444    8.9166   10.8234 O   0  0  0  0  0  0  0  0  0  0  0  0
   14.9356    9.6924    9.6105 C   0  0  0  0  0  0  0  0  0  0  0  0
   14.6019   11.0749    9.8628 O   0  0  0  0  0  0  0  0  0  0  0  0
   15.4559   11.7337   16.3021 N   0  0  0  0  0  0  0  0  0  0  0  0
   15.7827   13.1303   15.9845 C   0  0  2  0  0  0  0  0  0  0  0  0
   16.9024   13.7634   16.8321 C   0  0  0  0  0  0  0  0  0  0  0  0
   16.8085   15.2830   16.7607 C   0  0  0  0  0  0  0  0  0  0  0  0
   15.4401   15.7669   17.2421 C   0  0  0  0  0  0  0  0  0  0  0  0
   14.3797   14.6743   17.1619 C   0  0  0  0  0  0  0  0  0  0  0  0
   14.5663   13.9014   15.9852 O   0  0  0  0  0  0  0  0  0  0  0  0
   15.4948   11.3419   17.5992 N   0  0  0  0  0  0  0  0  0  0  0  0
  1  2  1  0
  2  3  1  0
  3  4  1  0
  4  5  2  0
  5  6  1  0
  6  7  2  0
  7  8  1  0
  8  9  1  0
  8 10  2  0
 10 11  1  0
 11 12  2  0
 11 13  1  0
 13 14  1  0
 14 15  1  0
  5 16  1  0
 17 16  1  1
 17 18  1  0
 18 19  1  0
 19 20  1  0
 20 21  1  0
 21 22  1  0
 16 23  1  0
 23  3  2  0
 12  6  1  0
 22 17  1  0
 15 10  1  0
M  END
>  <HIPPO ID>  (71) 
46864

>  <alias>  (71) 
None

>  <ref_mols>  (71) 
c0864a,c1203a

>  <submitter_email>  (71) 
None

>  <ref_pdb>  (71) 
c0300a

>  <inchikey>  (71) 
WMJINEFZISCGLS-INIZCTEOSA-N

>  <generation_date>  (71) 
None

>  <original ID>  (71) 
WMJINEFZISCGLS-INIZCTEOSA-N

>  <tags>  (71) 
[]

>  <exports>  (71) 
nan

>  <method>  (71) 
None

>  <submitter_name>  (71) 
None

>  <original SMILES>  (71) 
CCc1cc(-c2cc(N)c3c(c2)OCO3)n([C@@H]2CCCCO2)n1

>  <ref_url>  (71) 
None

$$$$
WMJINEFZISCGLS-MRXNPFEDSA-N
     RDKit          3D

 23 26  0  0  0  0  0  0  0  0999 V2000
   16.7719    9.0030   19.2154 C   0  0  0  0  0  0  0  0  0  0  0  0
   15.3594    9.3732   18.7906 C   0  0  0  0  0  0  0  0  0  0  0  0
   15.3341   10.1326   17.5096 C   0  0  0  0  0  0  0  0  0  0  0  0
   15.0066    9.6637   16.2224 C   0  0  0  0  0  0  0  0  0  0  0  0
   15.0906   10.7580   15.3754 C   0  0  0  0  0  0  0  0  0  0  0  0
   14.8314   10.8238   13.9329 C   0  0  0  0  0  0  0  0  0  0  0  0
   14.3302   11.9893   13.3344 C   0  0  0  0  0  0  0  0  0  0  0  0
   14.2981   12.1567   11.9473 C   0  0  0  0  0  0  0  0  0  0  0  0
   13.7109   13.2846   11.4198 N   0  0  0  0  0  0  0  0  0  0  0  0
   14.6225   11.0720   11.1665 C   0  0  0  0  0  0  0  0  0  0  0  0
   14.9245    9.8658   11.7371 C   0  0  0  0  0  0  0  0  0  0  0  0
   15.0551    9.7141   13.1098 C   0  0  0  0  0  0  0  0  0  0  0  0
   15.0619    8.8816   10.8028 O   0  0  0  0  0  0  0  0  0  0  0  0
   14.9413    9.6347    9.5772 C   0  0  0  0  0  0  0  0  0  0  0  0
   14.5989   11.0182    9.8048 O   0  0  0  0  0  0  0  0  0  0  0  0
   15.5654   11.7862   16.1866 N   0  0  0  0  0  0  0  0  0  0  0  0
   15.9559   13.1570   15.8232 C   0  0  1  0  0  0  0  0  0  0  0  0
   15.1062   14.2223   16.5408 C   0  0  0  0  0  0  0  0  0  0  0  0
   15.8554   14.8343   17.7169 C   0  0  0  0  0  0  0  0  0  0  0  0
   17.2142   15.3810   17.2834 C   0  0  0  0  0  0  0  0  0  0  0  0
   17.7617   14.6803   16.0462 C   0  0  0  0  0  0  0  0  0  0  0  0
   17.3686   13.3151   16.0324 O   0  0  0  0  0  0  0  0  0  0  0  0
   15.6208   11.4335   17.4940 N   0  0  0  0  0  0  0  0  0  0  0  0
  1  2  1  0
  2  3  1  0
  3  4  1  0
  4  5  2  0
  5  6  1  0
  6  7  2  0
  7  8  1  0
  8  9  1  0
  8 10  2  0
 10 11  1  0
 11 12  2  0
 11 13  1  0
 13 14  1  0
 14 15  1  0
  5 16  1  0
 17 16  1  1
 17 18  1  0
 18 19  1  0
 19 20  1  0
 20 21  1  0
 21 22  1  0
 16 23  1  0
 23  3  2  0
 12  6  1  0
 22 17  1  0
 15 10  1  0
M  END
>  <HIPPO ID>  (72) 
46865

>  <alias>  (72) 
None

>  <ref_mols>  (72) 
c0864a,c1203a

>  <submitter_email>  (72) 
None

>  <ref_pdb>  (72) 
c0300a

>  <inchikey>  (72) 
WMJINEFZISCGLS-MRXNPFEDSA-N

>  <generation_date>  (72) 
None

>  <original ID>  (72) 
WMJINEFZISCGLS-MRXNPFEDSA-N

>  <tags>  (72) 
[]

>  <exports>  (72) 
nan

>  <method>  (72) 
None

>  <submitter_name>  (72) 
None

>  <original SMILES>  (72) 
CCc1cc(-c2cc(N)c3c(c2)OCO3)n([C@H]2CCCCO2)n1

>  <ref_url>  (72) 
None

$$$$
RCIQBYZSSNRPFS-UHFFFAOYSA-N
     RDKit          3D

 16 17  0  0  0  0  0  0  0  0999 V2000
   13.6236    7.1163   11.3794 O   0  0  0  0  0  0  0  0  0  0  0  0
   14.5091    8.1287   11.1569 C   0  0  0  0  0  0  0  0  0  0  0  0
   14.9079    8.4399    9.8719 C   0  0  0  0  0  0  0  0  0  0  0  0
   15.9051    9.3913    9.6892 C   0  0  0  0  0  0  0  0  0  0  0  0
   16.4909   10.0648   10.7737 C   0  0  0  0  0  0  0  0  0  0  0  0
   17.6202   10.8488   10.5006 N   0  0  0  0  0  0  0  0  0  0  0  0
   18.3282   11.8686   11.1540 C   0  0  0  0  0  0  0  0  0  0  0  0
   17.7332   12.7951   11.9955 C   0  0  0  0  0  0  0  0  0  0  0  0
   18.5306   13.8088   12.5060 C   0  0  0  0  0  0  0  0  0  0  0  0
   19.8529   13.9506   12.2580 N   0  0  0  0  0  0  0  0  0  0  0  0
   20.4293   13.0129   11.4971 C   0  0  0  0  0  0  0  0  0  0  0  0
   19.7154   11.9749   10.9430 C   0  0  0  0  0  0  0  0  0  0  0  0
   20.3479   11.0361   10.1918 O   0  0  0  0  0  0  0  0  0  0  0  0
   15.9298    9.8594   12.0356 C   0  0  0  0  0  0  0  0  0  0  0  0
   16.3813   10.5195   13.1120 F   0  0  0  0  0  0  0  0  0  0  0  0
   14.9802    8.8602   12.2396 C   0  0  0  0  0  0  0  0  0  0  0  0
  1  2  1  0
  2  3  2  0
  3  4  1  0
  4  5  2  0
  5  6  1  0
  6  7  1  0
  7  8  2  0
  8  9  1  0
  9 10  2  0
 10 11  1  0
 11 12  2  0
 12 13  1  0
  5 14  1  0
 14 15  1  0
 14 16  2  0
 16  2  1  0
 12  7  1  0
M  END
>  <HIPPO ID>  (73) 
46928

>  <alias>  (73) 
None

>  <ref_mols>  (73) 
c0935a,c1132a

>  <submitter_email>  (73) 
None

>  <ref_pdb>  (73) 
c0270a

>  <inchikey>  (73) 
RCIQBYZSSNRPFS-UHFFFAOYSA-N

>  <generation_date>  (73) 
None

>  <original ID>  (73) 
RCIQBYZSSNRPFS-UHFFFAOYSA-N

>  <tags>  (73) 
[]

>  <exports>  (73) 
['/opt/xchem-fragalysis-2/maxwin/CHIKV_HIPPO/hippo_prod/CHIKV_prod11_recipes/Recipe_1G8PPKY_poses.sdf']

>  <method>  (73) 
None

>  <submitter_name>  (73) 
None

>  <original SMILES>  (73) 
Oc1ccc(Nc2ccncc2O)c(F)c1

>  <ref_url>  (73) 
None

$$$$
CSIMISVTZHKCGD-UHFFFAOYSA-N
     RDKit          3D

 16 17  0  0  0  0  0  0  0  0999 V2000
   13.6137    7.0670   11.1936 O   0  0  0  0  0  0  0  0  0  0  0  0
   14.4882    8.1019   11.0548 C   0  0  0  0  0  0  0  0  0  0  0  0
   14.9362    8.4826    9.8133 C   0  0  0  0  0  0  0  0  0  0  0  0
   15.9122    9.4674    9.7305 C   0  0  0  0  0  0  0  0  0  0  0  0
   16.4236   10.1388   10.8647 C   0  0  0  0  0  0  0  0  0  0  0  0
   17.5452   10.9456   10.6022 N   0  0  0  0  0  0  0  0  0  0  0  0
   18.3016   11.9665   11.1990 C   0  0  0  0  0  0  0  0  0  0  0  0
   17.7668   12.9892   11.9618 C   0  0  0  0  0  0  0  0  0  0  0  0
   18.6291   13.9656   12.4425 C   0  0  0  0  0  0  0  0  0  0  0  0
   19.9605   14.0025   12.2105 N   0  0  0  0  0  0  0  0  0  0  0  0
   20.4744   12.9999   11.4902 C   0  0  0  0  0  0  0  0  0  0  0  0
   19.6936   11.9871   10.9794 C   0  0  0  0  0  0  0  0  0  0  0  0
   20.2635   10.9956   10.2454 O   0  0  0  0  0  0  0  0  0  0  0  0
   15.7856    9.8786   12.0830 C   0  0  0  0  0  0  0  0  0  0  0  0
   16.0700   10.8024   13.7096 Br  0  0  0  0  0  0  0  0  0  0  0  0
   14.8820    8.8074   12.1826 C   0  0  0  0  0  0  0  0  0  0  0  0
  1  2  1  0
  2  3  2  0
  3  4  1  0
  4  5  2  0
  5  6  1  0
  6  7  1  0
  7  8  2  0
  8  9  1  0
  9 10  2  0
 10 11  1  0
 11 12  2  0
 12 13  1  0
  5 14  1  0
 14 15  1  0
 14 16  2  0
 16  2  1  0
 12  7  1  0
M  END
>  <HIPPO ID>  (74) 
46938

>  <alias>  (74) 
None

>  <ref_mols>  (74) 
c0935a,c1132a

>  <submitter_email>  (74) 
None

>  <ref_pdb>  (74) 
c0270a

>  <inchikey>  (74) 
CSIMISVTZHKCGD-UHFFFAOYSA-N

>  <generation_date>  (74) 
None

>  <original ID>  (74) 
CSIMISVTZHKCGD-UHFFFAOYSA-N

>  <tags>  (74) 
[]

>  <exports>  (74) 
nan

>  <method>  (74) 
None

>  <submitter_name>  (74) 
None

>  <original SMILES>  (74) 
Oc1ccc(Nc2ccncc2O)c(Br)c1

>  <ref_url>  (74) 
None

$$$$
JOEHOJXJPGXQQA-UHFFFAOYSA-N
     RDKit          3D

 17 18  0  0  0  0  0  0  0  0999 V2000
   13.6882    6.9658   11.7089 O   0  0  0  0  0  0  0  0  0  0  0  0
   14.5434    8.0059   11.4663 C   0  0  0  0  0  0  0  0  0  0  0  0
   14.8821    8.2486   10.1480 C   0  0  0  0  0  0  0  0  0  0  0  0
   15.7158    9.3223    9.8538 C   0  0  0  0  0  0  0  0  0  0  0  0
   16.2235   10.1496   10.8724 C   0  0  0  0  0  0  0  0  0  0  0  0
   16.9825   11.2855   10.5173 N   0  0  0  0  0  0  0  0  0  0  0  0
   18.2832   11.6454   10.9558 C   0  0  0  0  0  0  0  0  0  0  0  0
   19.3785   10.9958   10.4035 C   0  0  0  0  0  0  0  0  0  0  0  0
   20.6732   11.3416   10.5453 N   0  0  0  0  0  0  0  0  0  0  0  0
   20.9136   12.4800   11.2067 C   0  0  0  0  0  0  0  0  0  0  0  0
   19.9039   13.2369   11.7713 C   0  0  0  0  0  0  0  0  0  0  0  0
   20.2418   14.4380   12.3129 O   0  0  0  0  0  0  0  0  0  0  0  0
   18.5818   12.7804   11.7074 C   0  0  0  0  0  0  0  0  0  0  0  0
   17.2320   13.7363   12.6379 Br  0  0  0  0  0  0  0  0  0  0  0  0
   15.8555    9.9103   12.1935 C   0  0  0  0  0  0  0  0  0  0  0  0
   15.0092    8.8443   12.4855 C   0  0  0  0  0  0  0  0  0  0  0  0
   14.4700    8.6257   14.1095 Cl  0  0  0  0  0  0  0  0  0  0  0  0
  1  2  1  0
  2  3  2  0
  3  4  1  0
  4  5  2  0
  5  6  1  0
  6  7  1  0
  7  8  2  0
  8  9  1  0
  9 10  2  0
 10 11  1  0
 11 12  1  0
 11 13  2  0
 13 14  1  0
  5 15  1  0
 15 16  2  0
 16 17  1  0
 16  2  1  0
 13  7  1  0
M  END
>  <HIPPO ID>  (75) 
47005

>  <alias>  (75) 
None

>  <ref_mols>  (75) 
c0935a,c1132a

>  <submitter_email>  (75) 
None

>  <ref_pdb>  (75) 
c0270a

>  <inchikey>  (75) 
JOEHOJXJPGXQQA-UHFFFAOYSA-N

>  <generation_date>  (75) 
None

>  <original ID>  (75) 
JOEHOJXJPGXQQA-UHFFFAOYSA-N

>  <tags>  (75) 
[]

>  <exports>  (75) 
nan

>  <method>  (75) 
None

>  <submitter_name>  (75) 
None

>  <original SMILES>  (75) 
Oc1ccc(Nc2cncc(O)c2Br)cc1Cl

>  <ref_url>  (75) 
None

$$$$
JWKBKFCDBKSATE-UHFFFAOYSA-N
     RDKit          3D

 17 18  0  0  0  0  0  0  0  0999 V2000
   21.3856   13.6813   11.5770 N   0  0  0  0  0  0  0  0  0  0  0  0
   20.4636   12.7159   11.2013 C   0  0  0  0  0  0  0  0  0  0  0  0
   20.9570   11.7482   10.4509 N   0  0  0  0  0  0  0  0  0  0  0  0
   20.0865   10.8302   10.0433 C   0  0  0  0  0  0  0  0  0  0  0  0
   18.7454   10.8179   10.3646 C   0  0  0  0  0  0  0  0  0  0  0  0
   18.2225   11.8014   11.1706 C   0  0  0  0  0  0  0  0  0  0  0  0
   16.8449   11.8213   11.4846 N   0  0  0  0  0  0  0  0  0  0  0  0
   15.9736   10.7154   11.3414 C   0  0  0  0  0  0  0  0  0  0  0  0
   15.6348   10.2030   10.0776 C   0  0  0  0  0  0  0  0  0  0  0  0
   14.9511    8.9968    9.9309 C   0  0  0  0  0  0  0  0  0  0  0  0
   14.5862    8.2886   11.0665 C   0  0  0  0  0  0  0  0  0  0  0  0
   13.8825    7.1236   10.9275 O   0  0  0  0  0  0  0  0  0  0  0  0
   14.8854    8.8015   12.3359 C   0  0  0  0  0  0  0  0  0  0  0  0
   14.3854    8.0083   13.7841 Cl  0  0  0  0  0  0  0  0  0  0  0  0
   15.5745   10.0073   12.4715 C   0  0  0  0  0  0  0  0  0  0  0  0
   19.1203   12.7821   11.5852 C   0  0  0  0  0  0  0  0  0  0  0  0
   18.7289   13.7705   12.4404 O   0  0  0  0  0  0  0  0  0  0  0  0
  1  2  1  0
  2  3  2  0
  3  4  1  0
  4  5  2  0
  5  6  1  0
  6  7  1  0
  7  8  1  0
  8  9  2  0
  9 10  1  0
 10 11  2  0
 11 12  1  0
 11 13  1  0
 13 14  1  0
 13 15  2  0
  6 16  2  0
 16 17  1  0
 16  2  1  0
 15  8  1  0
M  END
>  <HIPPO ID>  (76) 
47147

>  <alias>  (76) 
None

>  <ref_mols>  (76) 
c0935a,c1132a

>  <submitter_email>  (76) 
None

>  <ref_pdb>  (76) 
c0270a

>  <inchikey>  (76) 
JWKBKFCDBKSATE-UHFFFAOYSA-N

>  <generation_date>  (76) 
None

>  <original ID>  (76) 
JWKBKFCDBKSATE-UHFFFAOYSA-N

>  <tags>  (76) 
[]

>  <exports>  (76) 
nan

>  <method>  (76) 
None

>  <submitter_name>  (76) 
None

>  <original SMILES>  (76) 
Nc1nccc(Nc2ccc(O)c(Cl)c2)c1O

>  <ref_url>  (76) 
None

$$$$
PLQKTQBQLBFGFL-UHFFFAOYSA-N
     RDKit          3D

 18 19  0  0  0  0  0  0  0  0999 V2000
   21.4242   11.4458   10.5938 C   0  0  0  0  0  0  0  0  0  0  0  0
   20.0020   11.3766   10.5159 O   0  0  0  0  0  0  0  0  0  0  0  0
   19.3018   12.2966   11.2523 C   0  0  0  0  0  0  0  0  0  0  0  0
   19.8449   13.3919   11.9069 C   0  0  0  0  0  0  0  0  0  0  0  0
   19.1169   14.2757   12.6278 N   0  0  0  0  0  0  0  0  0  0  0  0
   17.7858   14.0708   12.7099 C   0  0  0  0  0  0  0  0  0  0  0  0
   16.9977   15.0255   13.5518 C   0  0  0  0  0  0  0  0  0  0  0  0
   17.1537   13.0062   12.0801 C   0  0  0  0  0  0  0  0  0  0  0  0
   17.9100   12.0940   11.3468 C   0  0  0  0  0  0  0  0  0  0  0  0
   17.3299   10.9869   10.6992 N   0  0  0  0  0  0  0  0  0  0  0  0
   16.2839   10.0793   10.9446 C   0  0  0  0  0  0  0  0  0  0  0  0
   15.7960    9.4051    9.8038 C   0  0  0  0  0  0  0  0  0  0  0  0
   14.8577    8.3798    9.8896 C   0  0  0  0  0  0  0  0  0  0  0  0
   14.4269    7.9672   11.1291 C   0  0  0  0  0  0  0  0  0  0  0  0
   13.5537    6.9240   11.1954 O   0  0  0  0  0  0  0  0  0  0  0  0
   14.8268    8.6486   12.2684 C   0  0  0  0  0  0  0  0  0  0  0  0
   15.6942    9.7474   12.1744 C   0  0  0  0  0  0  0  0  0  0  0  0
   16.0071   10.6003   13.8388 Br  0  0  0  0  0  0  0  0  0  0  0  0
  1  2  1  0
  2  3  1  0
  3  4  2  0
  4  5  1  0
  5  6  2  0
  6  7  1  0
  6  8  1  0
  8  9  2  0
  9 10  1  0
 10 11  1  0
 11 12  2  0
 12 13  1  0
 13 14  2  0
 14 15  1  0
 14 16  1  0
 16 17  2  0
 17 18  1  0
  9  3  1  0
 17 11  1  0
M  END
>  <HIPPO ID>  (77) 
47351

>  <alias>  (77) 
None

>  <ref_mols>  (77) 
c0935a,c1132a

>  <submitter_email>  (77) 
None

>  <ref_pdb>  (77) 
c0270a

>  <inchikey>  (77) 
PLQKTQBQLBFGFL-UHFFFAOYSA-N

>  <generation_date>  (77) 
None

>  <original ID>  (77) 
PLQKTQBQLBFGFL-UHFFFAOYSA-N

>  <tags>  (77) 
[]

>  <exports>  (77) 
nan

>  <method>  (77) 
None

>  <submitter_name>  (77) 
None

>  <original SMILES>  (77) 
COc1cnc(C)cc1Nc1ccc(O)cc1Br

>  <ref_url>  (77) 
None

$$$$
DYZQVGLFSJZGRE-UHFFFAOYSA-N
     RDKit          3D

 18 19  0  0  0  0  0  0  0  0999 V2000
   22.7585   13.1590   10.2449 C   0  0  0  0  0  0  0  0  0  0  0  0
   21.6520   13.2499   11.1495 O   0  0  0  0  0  0  0  0  0  0  0  0
   20.6399   12.3699   10.9210 C   0  0  0  0  0  0  0  0  0  0  0  0
   20.8489   11.2272   10.2050 C   0  0  0  0  0  0  0  0  0  0  0  0
   19.8490   10.4589    9.8180 N   0  0  0  0  0  0  0  0  0  0  0  0
   18.6196   10.7091   10.2787 C   0  0  0  0  0  0  0  0  0  0  0  0
   18.2706   11.7416   11.1078 C   0  0  0  0  0  0  0  0  0  0  0  0
   16.9171   11.8875   11.5026 N   0  0  0  0  0  0  0  0  0  0  0  0
   15.9632   10.8345   11.3833 C   0  0  0  0  0  0  0  0  0  0  0  0
   15.5629   10.3464   10.1232 C   0  0  0  0  0  0  0  0  0  0  0  0
   14.8987    9.1284    9.9777 C   0  0  0  0  0  0  0  0  0  0  0  0
   14.5869    8.3962   11.1129 C   0  0  0  0  0  0  0  0  0  0  0  0
   13.9130    7.2130   10.9784 O   0  0  0  0  0  0  0  0  0  0  0  0
   14.9045    8.9048   12.3804 C   0  0  0  0  0  0  0  0  0  0  0  0
   14.4330    8.0957   13.8290 Cl  0  0  0  0  0  0  0  0  0  0  0  0
   15.5945   10.1125   12.5150 C   0  0  0  0  0  0  0  0  0  0  0  0
   19.3326   12.6150   11.3953 C   0  0  0  0  0  0  0  0  0  0  0  0
   19.0440   14.1341   12.4767 Br  0  0  0  0  0  0  0  0  0  0  0  0
  1  2  1  0
  2  3  1  0
  3  4  2  0
  4  5  1  0
  5  6  2  0
  6  7  1  0
  7  8  1  0
  8  9  1  0
  9 10  2  0
 10 11  1  0
 11 12  2  0
 12 13  1  0
 12 14  1  0
 14 15  1  0
 14 16  2  0
  7 17  2  0
 17 18  1  0
 17  3  1  0
 16  9  1  0
M  END
>  <HIPPO ID>  (78) 
47401

>  <alias>  (78) 
None

>  <ref_mols>  (78) 
c0935a,c1132a

>  <submitter_email>  (78) 
None

>  <ref_pdb>  (78) 
c0270a

>  <inchikey>  (78) 
DYZQVGLFSJZGRE-UHFFFAOYSA-N

>  <generation_date>  (78) 
None

>  <original ID>  (78) 
DYZQVGLFSJZGRE-UHFFFAOYSA-N

>  <tags>  (78) 
[]

>  <exports>  (78) 
nan

>  <method>  (78) 
None

>  <submitter_name>  (78) 
None

>  <original SMILES>  (78) 
COc1cncc(Nc2ccc(O)c(Cl)c2)c1Br

>  <ref_url>  (78) 
None

$$$$
UDCYIVFYFRJDPK-UHFFFAOYSA-N
     RDKit          3D

 18 19  0  0  0  0  0  0  0  0999 V2000
   16.0514    9.8718   14.5933 N   0  0  0  0  0  0  0  0  0  0  0  0
   16.1135   10.6333   13.4512 C   0  0  0  0  0  0  0  0  0  0  0  0
   16.3282   11.8246   13.5869 O   0  0  0  0  0  0  0  0  0  0  0  0
   15.8500    9.9330   12.1605 C   0  0  0  0  0  0  0  0  0  0  0  0
   14.8998    8.8861   12.2568 C   0  0  0  0  0  0  0  0  0  0  0  0
   14.5121    8.1477   11.1473 C   0  0  0  0  0  0  0  0  0  0  0  0
   13.6332    7.1119   11.2423 O   0  0  0  0  0  0  0  0  0  0  0  0
   14.9786    8.4874    9.9047 C   0  0  0  0  0  0  0  0  0  0  0  0
   15.9544    9.4732    9.8031 C   0  0  0  0  0  0  0  0  0  0  0  0
   16.4808   10.1676   10.9253 C   0  0  0  0  0  0  0  0  0  0  0  0
   17.6334   10.9229   10.6268 N   0  0  0  0  0  0  0  0  0  0  0  0
   18.4286   11.9544   11.1521 C   0  0  0  0  0  0  0  0  0  0  0  0
   17.9425   13.0439   11.8460 C   0  0  0  0  0  0  0  0  0  0  0  0
   18.8403   14.0026   12.2981 C   0  0  0  0  0  0  0  0  0  0  0  0
   20.1718   13.9785   12.0720 N   0  0  0  0  0  0  0  0  0  0  0  0
   20.6400   12.9277   11.3918 C   0  0  0  0  0  0  0  0  0  0  0  0
   19.8185   11.9215   10.9279 C   0  0  0  0  0  0  0  0  0  0  0  0
   20.3522   10.8912   10.2223 O   0  0  0  0  0  0  0  0  0  0  0  0
  1  2  1  0
  2  3  2  0
  2  4  1  0
  4  5  2  0
  5  6  1  0
  6  7  1  0
  6  8  2  0
  8  9  1  0
  9 10  2  0
 10 11  1  0
 11 12  1  0
 12 13  2  0
 13 14  1  0
 14 15  2  0
 15 16  1  0
 16 17  2  0
 17 18  1  0
 10  4  1  0
 17 12  1  0
M  END
>  <HIPPO ID>  (79) 
47757

>  <alias>  (79) 
None

>  <ref_mols>  (79) 
c0935a,c1132a

>  <submitter_email>  (79) 
None

>  <ref_pdb>  (79) 
c0270a

>  <inchikey>  (79) 
UDCYIVFYFRJDPK-UHFFFAOYSA-N

>  <generation_date>  (79) 
None

>  <original ID>  (79) 
UDCYIVFYFRJDPK-UHFFFAOYSA-N

>  <tags>  (79) 
[]

>  <exports>  (79) 
nan

>  <method>  (79) 
None

>  <submitter_name>  (79) 
None

>  <original SMILES>  (79) 
NC(=O)c1cc(O)ccc1Nc1ccncc1O

>  <ref_url>  (79) 
None

$$$$
HCNZKKBJKHYAFZ-UHFFFAOYSA-N
     RDKit          3D

 18 19  0  0  0  0  0  0  0  0999 V2000
   13.2232    6.5066   12.3832 C   0  0  0  0  0  0  0  0  0  0  0  0
   13.5279    7.2640   11.2355 O   0  0  0  0  0  0  0  0  0  0  0  0
   14.4508    8.2717   11.2526 C   0  0  0  0  0  0  0  0  0  0  0  0
   14.7462    8.7624    9.9784 C   0  0  0  0  0  0  0  0  0  0  0  0
   13.6910    8.4595    8.6613 Cl  0  0  0  0  0  0  0  0  0  0  0  0
   15.8081    9.6218    9.7570 C   0  0  0  0  0  0  0  0  0  0  0  0
   16.5350   10.1299   10.8238 C   0  0  0  0  0  0  0  0  0  0  0  0
   17.6903   10.8564   10.5422 N   0  0  0  0  0  0  0  0  0  0  0  0
   18.4021   11.8868   11.1705 C   0  0  0  0  0  0  0  0  0  0  0  0
   17.8107   12.8203   12.0082 C   0  0  0  0  0  0  0  0  0  0  0  0
   18.6138   13.8358   12.5045 C   0  0  0  0  0  0  0  0  0  0  0  0
   19.9361   13.9637   12.2530 N   0  0  0  0  0  0  0  0  0  0  0  0
   20.5073   13.0192   11.4970 C   0  0  0  0  0  0  0  0  0  0  0  0
   19.7876   11.9830   10.9516 C   0  0  0  0  0  0  0  0  0  0  0  0
   20.4077   11.0335   10.2050 O   0  0  0  0  0  0  0  0  0  0  0  0
   16.0560    9.8867   12.1069 C   0  0  0  0  0  0  0  0  0  0  0  0
   15.0485    8.9318   12.3302 C   0  0  0  0  0  0  0  0  0  0  0  0
   14.5722    8.7390   13.9811 Cl  0  0  0  0  0  0  0  0  0  0  0  0
  1  2  1  0
  2  3  1  0
  3  4  2  0
  4  5  1  0
  4  6  1  0
  6  7  2  0
  7  8  1  0
  8  9  1  0
  9 10  2  0
 10 11  1  0
 11 12  2  0
 12 13  1  0
 13 14  2  0
 14 15  1  0
  7 16  1  0
 16 17  2  0
 17 18  1  0
 17  3  1  0
 14  9  1  0
M  END
>  <HIPPO ID>  (80) 
47776

>  <alias>  (80) 
None

>  <ref_mols>  (80) 
c0935a,c1132a

>  <submitter_email>  (80) 
None

>  <ref_pdb>  (80) 
c0270a

>  <inchikey>  (80) 
HCNZKKBJKHYAFZ-UHFFFAOYSA-N

>  <generation_date>  (80) 
None

>  <original ID>  (80) 
HCNZKKBJKHYAFZ-UHFFFAOYSA-N

>  <tags>  (80) 
[]

>  <exports>  (80) 
['/opt/xchem-fragalysis-2/maxwin/CHIKV_HIPPO/hippo_prod/CHIKV_prod11_recipes/Recipe_1G8PPKY_poses.sdf']

>  <method>  (80) 
None

>  <submitter_name>  (80) 
None

>  <original SMILES>  (80) 
COc1c(Cl)cc(Nc2ccncc2O)cc1Cl

>  <ref_url>  (80) 
None

$$$$
BDIGQVHQFGBBNL-UHFFFAOYSA-N
     RDKit          3D

 19 20  0  0  0  0  0  0  0  0999 V2000
   14.7164   11.1984   13.9539 N   0  0  0  0  0  0  0  0  0  0  0  0
   15.8927   10.7716   13.3898 C   0  0  0  0  0  0  0  0  0  0  0  0
   16.9643   11.0368   13.9063 O   0  0  0  0  0  0  0  0  0  0  0  0
   15.7560    9.9910   12.1499 C   0  0  0  0  0  0  0  0  0  0  0  0
   14.9063    8.8686   12.2603 C   0  0  0  0  0  0  0  0  0  0  0  0
   14.5486    8.1325   11.1411 C   0  0  0  0  0  0  0  0  0  0  0  0
   13.6967    7.0804   11.2849 O   0  0  0  0  0  0  0  0  0  0  0  0
   14.9988    8.5107    9.9004 C   0  0  0  0  0  0  0  0  0  0  0  0
   15.9141    9.5545    9.8119 C   0  0  0  0  0  0  0  0  0  0  0  0
   16.3822   10.2848   10.9363 C   0  0  0  0  0  0  0  0  0  0  0  0
   17.3760   11.2377   10.6196 N   0  0  0  0  0  0  0  0  0  0  0  0
   18.3063   12.0809   11.2837 C   0  0  0  0  0  0  0  0  0  0  0  0
   19.6725   11.8962   10.9529 C   0  0  0  0  0  0  0  0  0  0  0  0
   20.0016   10.8945   10.0958 O   0  0  0  0  0  0  0  0  0  0  0  0
   20.6685   12.7206   11.4373 C   0  0  0  0  0  0  0  0  0  0  0  0
   20.4039   13.7519   12.2383 N   0  0  0  0  0  0  0  0  0  0  0  0
   19.1023   13.9229   12.5802 C   0  0  0  0  0  0  0  0  0  0  0  0
   18.0297   13.1404   12.1413 C   0  0  0  0  0  0  0  0  0  0  0  0
   16.4562   13.6767   12.5734 Cl  0  0  0  0  0  0  0  0  0  0  0  0
  1  2  1  0
  2  3  2  0
  2  4  1  0
  4  5  2  0
  5  6  1  0
  6  7  1  0
  6  8  2  0
  8  9  1  0
  9 10  2  0
 10 11  1  0
 11 12  1  0
 12 13  2  0
 13 14  1  0
 13 15  1  0
 15 16  2  0
 16 17  1  0
 17 18  2  0
 18 19  1  0
 10  4  1  0
 18 12  1  0
M  END
>  <HIPPO ID>  (81) 
48986

>  <alias>  (81) 
None

>  <ref_mols>  (81) 
c0935a,c1132a

>  <submitter_email>  (81) 
None

>  <ref_pdb>  (81) 
c0270a

>  <inchikey>  (81) 
BDIGQVHQFGBBNL-UHFFFAOYSA-N

>  <generation_date>  (81) 
None

>  <original ID>  (81) 
BDIGQVHQFGBBNL-UHFFFAOYSA-N

>  <tags>  (81) 
[]

>  <exports>  (81) 
nan

>  <method>  (81) 
None

>  <submitter_name>  (81) 
None

>  <original SMILES>  (81) 
NC(=O)c1cc(O)ccc1Nc1c(O)cncc1Cl

>  <ref_url>  (81) 
None

$$$$
ZZURHVOPTJAUQA-UHFFFAOYSA-N
     RDKit          3D

 19 20  0  0  0  0  0  0  0  0999 V2000
   21.5508   13.0659   11.0446 N   0  0  0  0  0  0  0  0  0  0  0  0
   20.1795   12.9285   11.2980 C   0  0  0  0  0  0  0  0  0  0  0  0
   19.5441   13.8683   11.9925 N   0  0  0  0  0  0  0  0  0  0  0  0
   18.2309   13.6672   12.2615 C   0  0  0  0  0  0  0  0  0  0  0  0
   17.4937   12.5865   11.8230 C   0  0  0  0  0  0  0  0  0  0  0  0
   18.1416   11.6587   11.0256 C   0  0  0  0  0  0  0  0  0  0  0  0
   17.4927   10.5827   10.4173 N   0  0  0  0  0  0  0  0  0  0  0  0
   16.3643    9.8248   10.7168 C   0  0  0  0  0  0  0  0  0  0  0  0
   15.7454    9.1332    9.6768 C   0  0  0  0  0  0  0  0  0  0  0  0
   14.7509    8.2024    9.9346 C   0  0  0  0  0  0  0  0  0  0  0  0
   14.3756    7.9519   11.2456 C   0  0  0  0  0  0  0  0  0  0  0  0
   13.4735    6.9593   11.4874 O   0  0  0  0  0  0  0  0  0  0  0  0
   14.8719    8.7283   12.2952 C   0  0  0  0  0  0  0  0  0  0  0  0
   14.3801    8.6337   13.7140 C   0  0  0  0  0  0  0  0  0  0  0  0
   13.5787    7.5731   14.0013 F   0  0  0  0  0  0  0  0  0  0  0  0
   13.6577    9.7335   14.0826 F   0  0  0  0  0  0  0  0  0  0  0  0
   15.8502    9.6921   12.0044 C   0  0  0  0  0  0  0  0  0  0  0  0
   19.5155   11.8202   10.8234 C   0  0  0  0  0  0  0  0  0  0  0  0
   20.2443   10.8814   10.1605 O   0  0  0  0  0  0  0  0  0  0  0  0
  1  2  1  0
  2  3  2  0
  3  4  1  0
  4  5  2  0
  5  6  1  0
  6  7  1  0
  7  8  1  0
  8  9  2  0
  9 10  1  0
 10 11  2  0
 11 12  1  0
 11 13  1  0
 13 14  1  0
 14 15  1  0
 14 16  1  0
 13 17  2  0
  6 18  2  0
 18 19  1  0
 18  2  1  0
 17  8  1  0
M  END
>  <HIPPO ID>  (82) 
49070

>  <alias>  (82) 
None

>  <ref_mols>  (82) 
c0935a,c1132a

>  <submitter_email>  (82) 
None

>  <ref_pdb>  (82) 
c0270a

>  <inchikey>  (82) 
ZZURHVOPTJAUQA-UHFFFAOYSA-N

>  <generation_date>  (82) 
None

>  <original ID>  (82) 
ZZURHVOPTJAUQA-UHFFFAOYSA-N

>  <tags>  (82) 
[]

>  <exports>  (82) 
nan

>  <method>  (82) 
None

>  <submitter_name>  (82) 
None

>  <original SMILES>  (82) 
Nc1nccc(Nc2ccc(O)c(C(F)F)c2)c1O

>  <ref_url>  (82) 
None

$$$$
TYMNEBWHHVCUQL-UHFFFAOYSA-N
     RDKit          3D

 19 20  0  0  0  0  0  0  0  0999 V2000
   13.1693    6.2999   12.2859 C   0  0  0  0  0  0  0  0  0  0  0  0
   13.4901    6.9464   11.0626 O   0  0  0  0  0  0  0  0  0  0  0  0
   14.3949    7.9666   11.1017 C   0  0  0  0  0  0  0  0  0  0  0  0
   14.8304    8.4063    9.8637 C   0  0  0  0  0  0  0  0  0  0  0  0
   15.7893    9.4121    9.7724 C   0  0  0  0  0  0  0  0  0  0  0  0
   16.3038   10.0547   10.9126 C   0  0  0  0  0  0  0  0  0  0  0  0
   17.3585   10.9553   10.6793 N   0  0  0  0  0  0  0  0  0  0  0  0
   17.9244   12.0630   11.3391 C   0  0  0  0  0  0  0  0  0  0  0  0
   17.1591   12.9487   12.0964 C   0  0  0  0  0  0  0  0  0  0  0  0
   17.7764   14.0283   12.7163 C   0  0  0  0  0  0  0  0  0  0  0  0
   16.9761   14.9679   13.5640 C   0  0  0  0  0  0  0  0  0  0  0  0
   19.1011   14.2675   12.6124 N   0  0  0  0  0  0  0  0  0  0  0  0
   19.8394   13.3969   11.8849 C   0  0  0  0  0  0  0  0  0  0  0  0
   19.3114   12.2915   11.2347 C   0  0  0  0  0  0  0  0  0  0  0  0
   20.0231   11.3852   10.4924 O   0  0  0  0  0  0  0  0  0  0  0  0
   21.4447   11.4656   10.5797 C   0  0  0  0  0  0  0  0  0  0  0  0
   15.7278    9.7102   12.1453 C   0  0  0  0  0  0  0  0  0  0  0  0
   16.1049   10.4651   13.6513 Cl  0  0  0  0  0  0  0  0  0  0  0  0
   14.8335    8.6314   12.2406 C   0  0  0  0  0  0  0  0  0  0  0  0
  1  2  1  0
  2  3  1  0
  3  4  2  0
  4  5  1  0
  5  6  2  0
  6  7  1  0
  7  8  1  0
  8  9  2  0
  9 10  1  0
 10 11  1  0
 10 12  2  0
 12 13  1  0
 13 14  2  0
 14 15  1  0
 15 16  1  0
  6 17  1  0
 17 18  1  0
 17 19  2  0
 19  3  1  0
 14  8  1  0
M  END
>  <HIPPO ID>  (83) 
49314

>  <alias>  (83) 
None

>  <ref_mols>  (83) 
c0935a,c1132a

>  <submitter_email>  (83) 
None

>  <ref_pdb>  (83) 
c0270a

>  <inchikey>  (83) 
TYMNEBWHHVCUQL-UHFFFAOYSA-N

>  <generation_date>  (83) 
None

>  <original ID>  (83) 
TYMNEBWHHVCUQL-UHFFFAOYSA-N

>  <tags>  (83) 
[]

>  <exports>  (83) 
nan

>  <method>  (83) 
None

>  <submitter_name>  (83) 
None

>  <original SMILES>  (83) 
COc1ccc(Nc2cc(C)ncc2OC)c(Cl)c1

>  <ref_url>  (83) 
None

$$$$
XMKQEPXZVYBXQK-UHFFFAOYSA-N
     RDKit          3D

 19 20  0  0  0  0  0  0  0  0999 V2000
   22.3720   13.1216   10.3339 O   0  0  0  0  0  0  0  0  0  0  0  0
   21.6674   12.1509   10.6071 N   0  0  0  0  0  4  0  0  0  0  0  0
   21.9732   10.9687   10.3800 O   0  0  0  0  0  1  0  0  0  0  0  0
   20.3103   12.4059   11.1369 C   0  0  0  0  0  0  0  0  0  0  0  0
   19.9801   13.4473   11.9335 N   0  0  0  0  0  0  0  0  0  0  0  0
   18.6839   13.5643   12.3278 C   0  0  0  0  0  0  0  0  0  0  0  0
   17.6554   12.7252   11.9454 C   0  0  0  0  0  0  0  0  0  0  0  0
   17.9807   11.7336   11.0451 C   0  0  0  0  0  0  0  0  0  0  0  0
   17.0170   10.9564   10.3694 N   0  0  0  0  0  0  0  0  0  0  0  0
   16.1321    9.9673   10.8140 C   0  0  0  0  0  0  0  0  0  0  0  0
   15.5616    9.1349    9.8330 C   0  0  0  0  0  0  0  0  0  0  0  0
   14.7117    8.0909   10.1734 C   0  0  0  0  0  0  0  0  0  0  0  0
   14.4100    7.8911   11.5063 C   0  0  0  0  0  0  0  0  0  0  0  0
   13.5573    6.8638   11.8042 O   0  0  0  0  0  0  0  0  0  0  0  0
   14.9013    8.7632   12.4853 C   0  0  0  0  0  0  0  0  0  0  0  0
   14.4094    8.5974   14.1311 Cl  0  0  0  0  0  0  0  0  0  0  0  0
   15.7502    9.8101   12.1407 C   0  0  0  0  0  0  0  0  0  0  0  0
   19.3254   11.5569   10.6817 C   0  0  0  0  0  0  0  0  0  0  0  0
   19.5411   10.5687    9.7823 O   0  0  0  0  0  0  0  0  0  0  0  0
  1  2  2  0
  2  3  1  0
  2  4  1  0
  4  5  2  0
  5  6  1  0
  6  7  2  0
  7  8  1  0
  8  9  1  0
  9 10  1  0
 10 11  2  0
 11 12  1  0
 12 13  2  0
 13 14  1  0
 13 15  1  0
 15 16  1  0
 15 17  2  0
  8 18  2  0
 18 19  1  0
 18  4  1  0
 17 10  1  0
M  CHG  2   2   1   3  -1
M  END
>  <HIPPO ID>  (84) 
49417

>  <alias>  (84) 
None

>  <ref_mols>  (84) 
c0935a,c1132a

>  <submitter_email>  (84) 
None

>  <ref_pdb>  (84) 
c0270a

>  <inchikey>  (84) 
XMKQEPXZVYBXQK-UHFFFAOYSA-N

>  <generation_date>  (84) 
None

>  <original ID>  (84) 
XMKQEPXZVYBXQK-UHFFFAOYSA-N

>  <tags>  (84) 
[]

>  <exports>  (84) 
nan

>  <method>  (84) 
None

>  <submitter_name>  (84) 
None

>  <original SMILES>  (84) 
O=[N+]([O-])c1nccc(Nc2ccc(O)c(Cl)c2)c1O

>  <ref_url>  (84) 
None

$$$$
VZUAQVJKNFIRCY-UHFFFAOYSA-N
     RDKit          3D

 20 21  0  0  0  0  0  0  0  0999 V2000
   21.2698   11.4225   10.6134 C   0  0  0  0  0  0  0  0  0  0  0  0
   19.8432   11.3990   10.5594 O   0  0  0  0  0  0  0  0  0  0  0  0
   19.1765   12.3296   11.3207 C   0  0  0  0  0  0  0  0  0  0  0  0
   19.7722   13.4119   11.9568 C   0  0  0  0  0  0  0  0  0  0  0  0
   19.0877   14.3222   12.6821 N   0  0  0  0  0  0  0  0  0  0  0  0
   17.7540   14.1391   12.7839 C   0  0  0  0  0  0  0  0  0  0  0  0
   17.0570   13.0896   12.1963 C   0  0  0  0  0  0  0  0  0  0  0  0
   15.1696   13.1230   12.3565 Br  0  0  0  0  0  0  0  0  0  0  0  0
   17.7716   12.1479   11.4452 C   0  0  0  0  0  0  0  0  0  0  0  0
   17.2053   11.0380   10.7783 N   0  0  0  0  0  0  0  0  0  0  0  0
   16.2271   10.0539   11.0095 C   0  0  0  0  0  0  0  0  0  0  0  0
   15.7837    9.4011    9.8334 C   0  0  0  0  0  0  0  0  0  0  0  0
   14.8597    8.3593    9.8512 C   0  0  0  0  0  0  0  0  0  0  0  0
   14.4041    7.8870   11.0566 C   0  0  0  0  0  0  0  0  0  0  0  0
   13.5236    6.8500   11.0606 O   0  0  0  0  0  0  0  0  0  0  0  0
   14.7778    8.5197   12.2282 C   0  0  0  0  0  0  0  0  0  0  0  0
   15.6176    9.6534   12.2104 C   0  0  0  0  0  0  0  0  0  0  0  0
   15.6804   10.2844   13.5425 C   0  0  0  0  0  0  0  0  0  0  0  0
   14.7598   10.2774   14.3461 O   0  0  0  0  0  0  0  0  0  0  0  0
   16.8370   10.8356   13.9044 O   0  0  0  0  0  0  0  0  0  0  0  0
  1  2  1  0
  2  3  1  0
  3  4  2  0
  4  5  1  0
  5  6  2  0
  6  7  1  0
  7  8  1  0
  7  9  2  0
  9 10  1  0
 10 11  1  0
 11 12  2  0
 12 13  1  0
 13 14  2  0
 14 15  1  0
 14 16  1  0
 16 17  2  0
 17 18  1  0
 18 19  2  0
 18 20  1  0
  9  3  1  0
 17 11  1  0
M  END
>  <HIPPO ID>  (85) 
50480

>  <alias>  (85) 
None

>  <ref_mols>  (85) 
c0935a,c1132a

>  <submitter_email>  (85) 
None

>  <ref_pdb>  (85) 
c0270a

>  <inchikey>  (85) 
VZUAQVJKNFIRCY-UHFFFAOYSA-N

>  <generation_date>  (85) 
None

>  <original ID>  (85) 
VZUAQVJKNFIRCY-UHFFFAOYSA-N

>  <tags>  (85) 
[]

>  <exports>  (85) 
nan

>  <method>  (85) 
None

>  <submitter_name>  (85) 
None

>  <original SMILES>  (85) 
COc1cncc(Br)c1Nc1ccc(O)cc1C(=O)O

>  <ref_url>  (85) 
None

$$$$
CHVZJVFALMTMHA-UHFFFAOYSA-N
     RDKit          3D

 20 21  0  0  0  0  0  0  0  0999 V2000
   22.3992   13.4040    9.5263 C   0  0  0  0  0  0  0  0  0  0  0  0
   22.2525   11.9985    9.5492 O   0  0  0  0  0  0  0  0  0  0  0  0
   21.5343   11.4807   10.6545 C   0  0  0  0  0  0  0  0  0  0  0  0
   20.1188   11.5175   10.4482 O   0  0  0  0  0  0  0  0  0  0  0  0
   19.3583   12.3318   11.2363 C   0  0  0  0  0  0  0  0  0  0  0  0
   19.8159   13.4509   11.9164 C   0  0  0  0  0  0  0  0  0  0  0  0
   19.0290   14.2551   12.6620 N   0  0  0  0  0  0  0  0  0  0  0  0
   17.7353   13.9022   12.7673 C   0  0  0  0  0  0  0  0  0  0  0  0
   16.9467   14.6894   13.5088 F   0  0  0  0  0  0  0  0  0  0  0  0
   17.1759   12.7988   12.1530 C   0  0  0  0  0  0  0  0  0  0  0  0
   17.9862   12.0119   11.3365 C   0  0  0  0  0  0  0  0  0  0  0  0
   17.4761   10.9028   10.6350 N   0  0  0  0  0  0  0  0  0  0  0  0
   16.4043   10.0246   10.8479 C   0  0  0  0  0  0  0  0  0  0  0  0
   15.8316    9.3868    9.7437 C   0  0  0  0  0  0  0  0  0  0  0  0
   14.8503    8.4122    9.9055 C   0  0  0  0  0  0  0  0  0  0  0  0
   14.4513    8.0231   11.1770 C   0  0  0  0  0  0  0  0  0  0  0  0
   13.5269    7.0186   11.1974 O   0  0  0  0  0  0  0  0  0  0  0  0
   13.2790    6.3813   12.4411 C   0  0  0  0  0  0  0  0  0  0  0  0
   14.9545    8.7041   12.2834 C   0  0  0  0  0  0  0  0  0  0  0  0
   15.8924    9.7304   12.1130 C   0  0  0  0  0  0  0  0  0  0  0  0
  1  2  1  0
  2  3  1  0
  3  4  1  0
  4  5  1  0
  5  6  2  0
  6  7  1  0
  7  8  2  0
  8  9  1  0
  8 10  1  0
 10 11  2  0
 11 12  1  0
 12 13  1  0
 13 14  2  0
 14 15  1  0
 15 16  2  0
 16 17  1  0
 17 18  1  0
 16 19  1  0
 19 20  2  0
 11  5  1  0
 20 13  1  0
M  END
>  <HIPPO ID>  (86) 
50682

>  <alias>  (86) 
None

>  <ref_mols>  (86) 
c0935a,c1132a

>  <submitter_email>  (86) 
None

>  <ref_pdb>  (86) 
c0270a

>  <inchikey>  (86) 
CHVZJVFALMTMHA-UHFFFAOYSA-N

>  <generation_date>  (86) 
None

>  <original ID>  (86) 
CHVZJVFALMTMHA-UHFFFAOYSA-N

>  <tags>  (86) 
[]

>  <exports>  (86) 
nan

>  <method>  (86) 
None

>  <submitter_name>  (86) 
None

>  <original SMILES>  (86) 
COCOc1cnc(F)cc1Nc1ccc(OC)cc1

>  <ref_url>  (86) 
None

$$$$
VPDWEKKLBPFIRV-UHFFFAOYSA-N
     RDKit          3D

 20 21  0  0  0  0  0  0  0  0999 V2000
   13.8833    8.4588    9.0715 C   0  0  0  0  0  0  0  0  0  0  0  0
   14.6785    8.9997   10.2154 C   0  0  0  0  0  0  0  0  0  0  0  0
   15.4811   10.1266   10.0210 C   0  0  0  0  0  0  0  0  0  0  0  0
   16.2525   10.6739   11.0718 C   0  0  0  0  0  0  0  0  0  0  0  0
   17.4664   11.3552   10.6957 N   0  0  0  0  0  0  0  0  0  0  0  0
   18.3202   10.2927   10.2420 C   0  0  0  0  0  0  0  0  0  0  0  0
   18.2873   12.3409   11.3194 C   0  0  0  0  0  0  0  0  0  0  0  0
   19.6737   12.4708   10.9886 C   0  0  0  0  0  0  0  0  0  0  0  0
   20.4633   13.4456   11.5506 C   0  0  0  0  0  0  0  0  0  0  0  0
   19.9659   14.3314   12.4073 N   0  0  0  0  0  0  0  0  0  0  0  0
   18.6373   14.2234   12.7095 C   0  0  0  0  0  0  0  0  0  0  0  0
   18.0372   15.1243   13.6683 N   0  0  0  0  0  4  0  0  0  0  0  0
   16.9004   15.5515   13.4020 O   0  0  0  0  0  0  0  0  0  0  0  0
   18.6693   15.3544   14.7048 O   0  0  0  0  0  1  0  0  0  0  0  0
   17.7607   13.2699   12.1912 C   0  0  0  0  0  0  0  0  0  0  0  0
   16.4237   13.2054   12.4807 O   0  0  0  0  0  0  0  0  0  0  0  0
   16.0324   10.2072   12.3690 C   0  0  0  0  0  0  0  0  0  0  0  0
   15.2178    9.0893   12.5777 C   0  0  0  0  0  0  0  0  0  0  0  0
   14.6030    8.4585   11.4944 C   0  0  0  0  0  0  0  0  0  0  0  0
   13.8701    7.3174   11.6801 O   0  0  0  0  0  0  0  0  0  0  0  0
  1  2  1  0
  2  3  2  0
  3  4  1  0
  4  5  1  0
  5  6  1  0
  5  7  1  0
  7  8  2  0
  8  9  1  0
  9 10  2  0
 10 11  1  0
 11 12  1  0
 12 13  2  0
 12 14  1  0
 11 15  2  0
 15 16  1  0
  4 17  2  0
 17 18  1  0
 18 19  2  0
 19 20  1  0
 19  2  1  0
 15  7  1  0
M  CHG  2  12   1  14  -1
M  END
>  <HIPPO ID>  (87) 
50848

>  <alias>  (87) 
None

>  <ref_mols>  (87) 
c0935a,c1132a

>  <submitter_email>  (87) 
None

>  <ref_pdb>  (87) 
c0270a

>  <inchikey>  (87) 
VPDWEKKLBPFIRV-UHFFFAOYSA-N

>  <generation_date>  (87) 
None

>  <original ID>  (87) 
VPDWEKKLBPFIRV-UHFFFAOYSA-N

>  <tags>  (87) 
[]

>  <exports>  (87) 
nan

>  <method>  (87) 
None

>  <submitter_name>  (87) 
None

>  <original SMILES>  (87) 
Cc1cc(N(C)c2ccnc([N+](=O)[O-])c2O)ccc1O

>  <ref_url>  (87) 
None

$$$$
RZSYOWYOHMBLJO-UHFFFAOYSA-N
     RDKit          3D

 21 23  0  0  0  0  0  0  0  0999 V2000
   16.8022   15.1623   13.8226 C   0  0  0  0  0  0  0  0  0  0  0  0
   17.6942   14.3130   12.9747 C   0  0  0  0  0  0  0  0  0  0  0  0
   17.1968   13.1619   12.3792 C   0  0  0  0  0  0  0  0  0  0  0  0
   18.0407   12.4000   11.5744 C   0  0  0  0  0  0  0  0  0  0  0  0
   17.6064   11.2348   10.9292 N   0  0  0  0  0  0  0  0  0  0  0  0
   16.5689   10.3478   11.1954 C   0  0  0  0  0  0  0  0  0  0  0  0
   15.9393    9.7600   10.1134 C   0  0  0  0  0  0  0  0  0  0  0  0
   14.9327    8.8421   10.3259 C   0  0  0  0  0  0  0  0  0  0  0  0
   13.6717    8.5138    8.7885 I   0  0  0  0  0  0  0  0  0  0  0  0
   14.6395    8.3683   11.5952 C   0  0  0  0  0  0  0  0  0  0  0  0
   13.7808    7.3140   11.7621 O   0  0  0  0  0  0  0  0  0  0  0  0
   15.1662    9.0444   12.6860 C   0  0  0  0  0  0  0  0  0  0  0  0
   14.5195    8.6663   14.6289 I   0  0  0  0  0  0  0  0  0  0  0  0
   16.1005   10.0624   12.4818 C   0  0  0  0  0  0  0  0  0  0  0  0
   19.3760   12.7956   11.4319 C   0  0  0  0  0  0  0  0  0  0  0  0
   20.1697   11.9906   10.6585 O   0  0  0  0  0  0  0  0  0  0  0  0
   21.5485   12.3763   10.5616 C   0  0  0  0  0  0  0  0  0  0  0  0
   22.4573   12.0270   11.7093 C   0  0  0  0  0  0  0  0  0  0  0  0
   22.4823   11.2188   10.4501 C   0  0  0  0  0  0  0  0  0  0  0  0
   19.7920   13.9416   12.0840 C   0  0  0  0  0  0  0  0  0  0  0  0
   18.9762   14.7125   12.8360 N   0  0  0  0  0  0  0  0  0  0  0  0
  1  2  1  0
  2  3  2  0
  3  4  1  0
  4  5  1  0
  5  6  1  0
  6  7  2  0
  7  8  1  0
  8  9  1  0
  8 10  2  0
 10 11  1  0
 10 12  1  0
 12 13  1  0
 12 14  2  0
  4 15  2  0
 15 16  1  0
 16 17  1  0
 17 18  1  0
 18 19  1  0
 15 20  1  0
 20 21  2  0
 21  2  1  0
 14  6  1  0
 19 17  1  0
M  END
>  <HIPPO ID>  (88) 
51178

>  <alias>  (88) 
None

>  <ref_mols>  (88) 
c0935a,c1132a

>  <submitter_email>  (88) 
None

>  <ref_pdb>  (88) 
c0270a

>  <inchikey>  (88) 
RZSYOWYOHMBLJO-UHFFFAOYSA-N

>  <generation_date>  (88) 
None

>  <original ID>  (88) 
RZSYOWYOHMBLJO-UHFFFAOYSA-N

>  <tags>  (88) 
[]

>  <exports>  (88) 
nan

>  <method>  (88) 
None

>  <submitter_name>  (88) 
None

>  <original SMILES>  (88) 
Cc1cc(Nc2cc(I)c(O)c(I)c2)c(OC2CC2)cn1

>  <ref_url>  (88) 
None

$$$$
WGDMRFONTWFEAS-UHFFFAOYSA-N
     RDKit          3D

 21 23  0  0  0  0  0  0  0  0999 V2000
   13.3086    6.2531   12.2128 C   0  0  0  0  0  0  0  0  0  0  0  0
   13.5059    7.0076   11.0273 O   0  0  0  0  0  0  0  0  0  0  0  0
   14.4310    8.0091   11.0683 C   0  0  0  0  0  0  0  0  0  0  0  0
   14.8509    8.4545    9.8227 C   0  0  0  0  0  0  0  0  0  0  0  0
   15.8411    9.4283    9.7172 C   0  0  0  0  0  0  0  0  0  0  0  0
   16.3933   10.0253   10.8551 C   0  0  0  0  0  0  0  0  0  0  0  0
   17.4757   10.9044   10.6877 N   0  0  0  0  0  0  0  0  0  0  0  0
   17.9285   12.0408   11.3860 C   0  0  0  0  0  0  0  0  0  0  0  0
   17.1023   12.7751   12.2387 C   0  0  0  0  0  0  0  0  0  0  0  0
   17.5849   13.9436   12.8238 C   0  0  0  0  0  0  0  0  0  0  0  0
   16.6995   14.7658   13.7070 C   0  0  0  0  0  0  0  0  0  0  0  0
   18.8344   14.4075   12.6106 N   0  0  0  0  0  0  0  0  0  0  0  0
   19.6339   13.6702   11.8123 C   0  0  0  0  0  0  0  0  0  0  0  0
   19.2531   12.4781   11.2220 C   0  0  0  0  0  0  0  0  0  0  0  0
   20.0622   11.8328   10.3321 O   0  0  0  0  0  0  0  0  0  0  0  0
   21.3233   11.2747   10.7548 C   0  0  0  0  0  0  0  0  0  0  0  0
   22.1359   11.7539   11.9220 C   0  0  0  0  0  0  0  0  0  0  0  0
   22.5112   12.1791   10.5328 C   0  0  0  0  0  0  0  0  0  0  0  0
   15.8429    9.6722   12.0916 C   0  0  0  0  0  0  0  0  0  0  0  0
   16.2787   10.2453   13.2238 F   0  0  0  0  0  0  0  0  0  0  0  0
   14.9096    8.6413   12.2103 C   0  0  0  0  0  0  0  0  0  0  0  0
  1  2  1  0
  2  3  1  0
  3  4  2  0
  4  5  1  0
  5  6  2  0
  6  7  1  0
  7  8  1  0
  8  9  2  0
  9 10  1  0
 10 11  1  0
 10 12  2  0
 12 13  1  0
 13 14  2  0
 14 15  1  0
 15 16  1  0
 16 17  1  0
 17 18  1  0
  6 19  1  0
 19 20  1  0
 19 21  2  0
 21  3  1  0
 14  8  1  0
 18 16  1  0
M  END
>  <HIPPO ID>  (89) 
51179

>  <alias>  (89) 
None

>  <ref_mols>  (89) 
c0935a,c1132a

>  <submitter_email>  (89) 
None

>  <ref_pdb>  (89) 
c0270a

>  <inchikey>  (89) 
WGDMRFONTWFEAS-UHFFFAOYSA-N

>  <generation_date>  (89) 
None

>  <original ID>  (89) 
WGDMRFONTWFEAS-UHFFFAOYSA-N

>  <tags>  (89) 
[]

>  <exports>  (89) 
nan

>  <method>  (89) 
None

>  <submitter_name>  (89) 
None

>  <original SMILES>  (89) 
COc1ccc(Nc2cc(C)ncc2OC2CC2)c(F)c1

>  <ref_url>  (89) 
None

$$$$
RVCQILZPRYSFRM-UHFFFAOYSA-N
     RDKit          3D

 21 22  0  0  0  0  0  0  0  0999 V2000
   23.3887   11.7395    9.2847 C   0  0  0  0  0  0  0  0  0  0  0  0
   22.1454   11.1443    9.6458 O   0  0  0  0  0  0  0  0  0  0  0  0
   21.4620   11.9309   10.5998 C   0  0  0  0  0  0  0  0  0  0  0  0
   20.0734   11.5911   10.5991 O   0  0  0  0  0  0  0  0  0  0  0  0
   19.2628   12.4059   11.3448 C   0  0  0  0  0  0  0  0  0  0  0  0
   19.6860   13.5107   12.0768 C   0  0  0  0  0  0  0  0  0  0  0  0
   18.8636   14.3069   12.7889 N   0  0  0  0  0  0  0  0  0  0  0  0
   17.5683   13.9513   12.8212 C   0  0  0  0  0  0  0  0  0  0  0  0
   16.7426   14.7316   13.5277 F   0  0  0  0  0  0  0  0  0  0  0  0
   17.0445   12.8542   12.1660 C   0  0  0  0  0  0  0  0  0  0  0  0
   17.8945   12.0723   11.3845 C   0  0  0  0  0  0  0  0  0  0  0  0
   17.4187   10.9672   10.6529 N   0  0  0  0  0  0  0  0  0  0  0  0
   16.3753   10.0510   10.8633 C   0  0  0  0  0  0  0  0  0  0  0  0
   15.8369    9.3925    9.7534 C   0  0  0  0  0  0  0  0  0  0  0  0
   14.8628    8.4056    9.9040 C   0  0  0  0  0  0  0  0  0  0  0  0
   14.4368    8.0190   11.1692 C   0  0  0  0  0  0  0  0  0  0  0  0
   13.5090    7.0168   11.1750 O   0  0  0  0  0  0  0  0  0  0  0  0
   13.2032    6.4097   12.4210 C   0  0  0  0  0  0  0  0  0  0  0  0
   14.9127    8.7055   12.2808 C   0  0  0  0  0  0  0  0  0  0  0  0
   15.8337    9.7408   12.1152 C   0  0  0  0  0  0  0  0  0  0  0  0
   16.2635   10.3680   13.2208 F   0  0  0  0  0  0  0  0  0  0  0  0
  1  2  1  0
  2  3  1  0
  3  4  1  0
  4  5  1  0
  5  6  2  0
  6  7  1  0
  7  8  2  0
  8  9  1  0
  8 10  1  0
 10 11  2  0
 11 12  1  0
 12 13  1  0
 13 14  2  0
 14 15  1  0
 15 16  2  0
 16 17  1  0
 17 18  1  0
 16 19  1  0
 19 20  2  0
 20 21  1  0
 11  5  1  0
 20 13  1  0
M  END
>  <HIPPO ID>  (90) 
51808

>  <alias>  (90) 
None

>  <ref_mols>  (90) 
c0935a,c1132a

>  <submitter_email>  (90) 
None

>  <ref_pdb>  (90) 
c0270a

>  <inchikey>  (90) 
RVCQILZPRYSFRM-UHFFFAOYSA-N

>  <generation_date>  (90) 
None

>  <original ID>  (90) 
RVCQILZPRYSFRM-UHFFFAOYSA-N

>  <tags>  (90) 
[]

>  <exports>  (90) 
nan

>  <method>  (90) 
None

>  <submitter_name>  (90) 
None

>  <original SMILES>  (90) 
COCOc1cnc(F)cc1Nc1ccc(OC)cc1F

>  <ref_url>  (90) 
None

$$$$
ZZFNEOXYIGHGKZ-HNNXBMFYSA-N
     RDKit          3D

 23 24  0  0  0  0  0  0  0  0999 V2000
   17.1711    7.1328   17.0838 C   0  0  0  0  0  0  0  0  0  0  0  0
   16.5449    7.5415   15.8344 N   0  0  0  0  0  0  0  0  0  0  0  0
   15.2482    8.1998   16.0915 C   0  0  0  0  0  0  0  0  0  0  0  0
   14.6514    8.7187   14.7700 C   0  0  0  0  0  0  0  0  0  0  0  0
   13.4550    8.5643   14.5183 O   0  0  0  0  0  0  0  0  0  0  0  0
   15.5555    9.3862   13.9146 N   0  0  0  0  0  0  0  0  0  0  0  0
   16.2194   10.4979   14.5585 C   0  0  0  0  0  0  0  0  0  0  0  0
   15.4438    9.2503   12.4593 C   0  0  0  0  0  0  0  0  0  0  0  0
   15.8570   10.2309   11.5162 C   0  0  0  0  0  0  0  0  0  0  0  0
   16.5041   11.4310   11.8562 N   0  0  0  0  0  0  0  0  0  0  0  0
   15.8213   12.6171   12.0095 C   0  0  0  0  0  0  0  0  0  0  0  0
   16.4241   13.6806   11.9148 O   0  0  0  0  0  0  0  0  0  0  0  0
   14.3546   12.6054   12.2113 C   0  0  2  0  0  0  0  0  0  0  0  0
   13.4836   12.7975   11.0295 C   0  0  0  0  0  0  0  0  0  0  0  0
   13.8299   12.9470   13.5869 C   0  0  0  0  0  0  0  0  0  0  0  0
   13.8640   11.6073   13.1132 O   0  0  0  0  0  0  0  0  0  0  0  0
   15.7059   10.0427   10.1322 C   0  0  0  0  0  0  0  0  0  0  0  0
   15.1260    8.9005    9.6261 C   0  0  0  0  0  0  0  0  0  0  0  0
   14.8149    7.8810   10.4993 C   0  0  0  0  0  0  0  0  0  0  0  0
   14.3748    6.6935    9.9853 O   0  0  0  0  0  0  0  0  0  0  0  0
   15.0007    8.0236   11.8898 C   0  0  0  0  0  0  0  0  0  0  0  0
   14.9306    6.8215   12.6690 C   0  0  0  0  0  0  0  0  0  0  0  0
   15.0044    5.8541   13.3089 N   0  0  0  0  0  0  0  0  0  0  0  0
  1  2  1  0
  2  3  1  0
  3  4  1  0
  4  5  2  0
  4  6  1  0
  6  7  1  0
  6  8  1  0
  8  9  2  0
  9 10  1  0
 10 11  1  0
 11 12  2  0
 11 13  1  0
 13 14  1  6
 13 15  1  0
 15 16  1  0
  9 17  1  0
 17 18  2  0
 18 19  1  0
 19 20  1  0
 19 21  2  0
 21 22  1  0
 22 23  3  0
 21  8  1  0
 16 13  1  0
M  END
>  <HIPPO ID>  (91) 
53732

>  <alias>  (91) 
None

>  <ref_mols>  (91) 
c0553a,c0935a

>  <submitter_email>  (91) 
None

>  <ref_pdb>  (91) 
c0270a

>  <inchikey>  (91) 
ZZFNEOXYIGHGKZ-HNNXBMFYSA-N

>  <generation_date>  (91) 
None

>  <original ID>  (91) 
ZZFNEOXYIGHGKZ-HNNXBMFYSA-N

>  <tags>  (91) 
[]

>  <exports>  (91) 
nan

>  <method>  (91) 
None

>  <submitter_name>  (91) 
None

>  <original SMILES>  (91) 
CNCC(=O)N(C)c1c(NC(=O)[C@]2(C)CO2)ccc(O)c1C#N

>  <ref_url>  (91) 
None

$$$$
ZZFNEOXYIGHGKZ-OAHLLOKOSA-N
     RDKit          3D

 23 24  0  0  0  0  0  0  0  0999 V2000
   14.5501    6.1537   16.8095 C   0  0  0  0  0  0  0  0  0  0  0  0
   13.9730    7.4633   17.0988 N   0  0  0  0  0  0  0  0  0  0  0  0
   14.6183    8.5177   16.3098 C   0  0  0  0  0  0  0  0  0  0  0  0
   14.1502    8.4966   14.8389 C   0  0  0  0  0  0  0  0  0  0  0  0
   13.0255    8.0836   14.5465 O   0  0  0  0  0  0  0  0  0  0  0  0
   15.0281    9.0471   13.9015 N   0  0  0  0  0  0  0  0  0  0  0  0
   16.2863    9.6124   14.3289 C   0  0  0  0  0  0  0  0  0  0  0  0
   14.8798    8.8114   12.4862 C   0  0  0  0  0  0  0  0  0  0  0  0
   14.8774    9.9167   11.6105 C   0  0  0  0  0  0  0  0  0  0  0  0
   14.8952   11.1887   12.1855 N   0  0  0  0  0  0  0  0  0  0  0  0
   14.9743   12.3714   11.5249 C   0  0  0  0  0  0  0  0  0  0  0  0
   14.5165   12.6126   10.4192 O   0  0  0  0  0  0  0  0  0  0  0  0
   15.8485   13.3175   12.2825 C   0  0  1  0  0  0  0  0  0  0  0  0
   17.3352   13.1779   12.1319 C   0  0  0  0  0  0  0  0  0  0  0  0
   15.3146   14.5701   12.9096 C   0  0  0  0  0  0  0  0  0  0  0  0
   15.4642   13.3866   13.6851 O   0  0  0  0  0  0  0  0  0  0  0  0
   14.8234    9.7390   10.2247 C   0  0  0  0  0  0  0  0  0  0  0  0
   14.6473    8.4763    9.6934 C   0  0  0  0  0  0  0  0  0  0  0  0
   14.6246    7.3805   10.5396 C   0  0  0  0  0  0  0  0  0  0  0  0
   14.4904    6.1352    9.9964 O   0  0  0  0  0  0  0  0  0  0  0  0
   14.7782    7.5277   11.9267 C   0  0  0  0  0  0  0  0  0  0  0  0
   14.9950    6.3641   12.7226 C   0  0  0  0  0  0  0  0  0  0  0  0
   15.2986    5.4536   13.3753 N   0  0  0  0  0  0  0  0  0  0  0  0
  1  2  1  0
  2  3  1  0
  3  4  1  0
  4  5  2  0
  4  6  1  0
  6  7  1  0
  6  8  1  0
  8  9  2  0
  9 10  1  0
 10 11  1  0
 11 12  2  0
 11 13  1  0
 13 14  1  1
 13 15  1  0
 15 16  1  0
  9 17  1  0
 17 18  2  0
 18 19  1  0
 19 20  1  0
 19 21  2  0
 21 22  1  0
 22 23  3  0
 21  8  1  0
 16 13  1  0
M  END
>  <HIPPO ID>  (92) 
53733

>  <alias>  (92) 
None

>  <ref_mols>  (92) 
c0553a,c0935a

>  <submitter_email>  (92) 
None

>  <ref_pdb>  (92) 
c0270a

>  <inchikey>  (92) 
ZZFNEOXYIGHGKZ-OAHLLOKOSA-N

>  <generation_date>  (92) 
None

>  <original ID>  (92) 
ZZFNEOXYIGHGKZ-OAHLLOKOSA-N

>  <tags>  (92) 
[]

>  <exports>  (92) 
nan

>  <method>  (92) 
None

>  <submitter_name>  (92) 
None

>  <original SMILES>  (92) 
CNCC(=O)N(C)c1c(NC(=O)[C@@]2(C)CO2)ccc(O)c1C#N

>  <ref_url>  (92) 
None

$$$$
UQUIYLPWSSSUNX-AWEZNQCLSA-N
     RDKit          3D

 24 25  0  0  0  0  0  0  0  0999 V2000
   15.6414    7.4018   17.1163 C   0  0  0  0  0  0  0  0  0  0  0  0
   16.2987    8.6358   16.6846 N   0  0  0  0  0  0  0  0  0  0  0  0
   15.3162    9.6903   16.3769 C   0  0  2  0  0  0  0  0  0  0  0  0
   14.6435    9.3783   15.0139 C   0  0  0  0  0  0  0  0  0  0  0  0
   13.5103    8.9040   14.9350 O   0  0  0  0  0  0  0  0  0  0  0  0
   15.4101    9.7101   13.9149 N   0  0  0  0  0  0  0  0  0  0  0  0
   15.2350    9.2303   12.5988 C   0  0  0  0  0  0  0  0  0  0  0  0
   15.3409   10.1771   11.5681 C   0  0  0  0  0  0  0  0  0  0  0  0
   14.9261   11.5104   11.8662 N   0  0  0  0  0  0  0  0  0  0  0  0
   14.1890   12.1957   10.9137 C   0  0  0  0  0  0  0  0  0  0  0  0
   14.2954   12.0036    9.7097 O   0  0  0  0  0  0  0  0  0  0  0  0
   13.1377   13.1457   11.4244 C   0  0  0  0  0  0  0  0  0  0  0  0
   11.8739   12.8163   10.8599 O   0  0  0  0  0  0  0  0  0  0  0  0
   11.1175   13.7789   10.1356 C   0  0  0  0  0  0  0  0  0  0  0  0
   15.5302    9.7588   10.2540 C   0  0  0  0  0  0  0  0  0  0  0  0
   15.2777    8.4492    9.9153 C   0  0  0  0  0  0  0  0  0  0  0  0
   15.0019    7.5245   10.9052 C   0  0  0  0  0  0  0  0  0  0  0  0
   14.7353    6.2394   10.5327 O   0  0  0  0  0  0  0  0  0  0  0  0
   15.0458    7.8817   12.2587 C   0  0  0  0  0  0  0  0  0  0  0  0
   14.9820    6.8380   13.2315 C   0  0  0  0  0  0  0  0  0  0  0  0
   14.9917    5.9662   13.9980 N   0  0  0  0  0  0  0  0  0  0  0  0
   16.0891   10.9949   16.3794 C   0  0  0  0  0  0  0  0  0  0  0  0
   15.7999   12.0493   17.4183 C   0  0  0  0  0  0  0  0  0  0  0  0
   15.4654   12.3127   15.9778 C   0  0  0  0  0  0  0  0  0  0  0  0
  1  2  1  0
  3  2  1  6
  3  4  1  0
  4  5  2  0
  4  6  1  0
  6  7  1  0
  7  8  2  0
  8  9  1  0
  9 10  1  0
 10 11  2  0
 10 12  1  0
 12 13  1  0
 13 14  1  0
  8 15  1  0
 15 16  2  0
 16 17  1  0
 17 18  1  0
 17 19  2  0
 19 20  1  0
 20 21  3  0
  3 22  1  0
 22 23  1  0
 23 24  1  0
 19  7  1  0
 24 22  1  0
M  END
>  <HIPPO ID>  (93) 
54336

>  <alias>  (93) 
None

>  <ref_mols>  (93) 
c0553a,c0935a

>  <submitter_email>  (93) 
None

>  <ref_pdb>  (93) 
c0270a

>  <inchikey>  (93) 
UQUIYLPWSSSUNX-AWEZNQCLSA-N

>  <generation_date>  (93) 
None

>  <original ID>  (93) 
UQUIYLPWSSSUNX-AWEZNQCLSA-N

>  <tags>  (93) 
[]

>  <exports>  (93) 
nan

>  <method>  (93) 
None

>  <submitter_name>  (93) 
None

>  <original SMILES>  (93) 
CN[C@H](C(=O)Nc1c(NC(=O)COC)ccc(O)c1C#N)C1CC1

>  <ref_url>  (93) 
None

$$$$
UQUIYLPWSSSUNX-CQSZACIVSA-N
     RDKit          3D

 24 25  0  0  0  0  0  0  0  0999 V2000
   17.5152    7.5054   16.7232 C   0  0  0  0  0  0  0  0  0  0  0  0
   16.3267    7.8594   15.9582 N   0  0  0  0  0  0  0  0  0  0  0  0
   16.0598    9.3153   15.9352 C   0  0  1  0  0  0  0  0  0  0  0  0
   15.2456    9.6112   14.6419 C   0  0  0  0  0  0  0  0  0  0  0  0
   14.3477   10.4399   14.5619 O   0  0  0  0  0  0  0  0  0  0  0  0
   15.7054    8.8187   13.6009 N   0  0  0  0  0  0  0  0  0  0  0  0
   15.2581    8.7748   12.2522 C   0  0  0  0  0  0  0  0  0  0  0  0
   15.0500    9.9167   11.4539 C   0  0  0  0  0  0  0  0  0  0  0  0
   15.1816   11.1982   12.0028 N   0  0  0  0  0  0  0  0  0  0  0  0
   14.7562   12.3836   11.4459 C   0  0  0  0  0  0  0  0  0  0  0  0
   14.1577   12.5099   10.3825 O   0  0  0  0  0  0  0  0  0  0  0  0
   15.2038   13.5785   12.2861 C   0  0  0  0  0  0  0  0  0  0  0  0
   15.4655   13.2559   13.6474 O   0  0  0  0  0  0  0  0  0  0  0  0
   14.3342   13.5277   14.4661 C   0  0  0  0  0  0  0  0  0  0  0  0
   14.7503    9.7608   10.0906 C   0  0  0  0  0  0  0  0  0  0  0  0
   14.5089    8.5149    9.5399 C   0  0  0  0  0  0  0  0  0  0  0  0
   14.6664    7.3965   10.3298 C   0  0  0  0  0  0  0  0  0  0  0  0
   14.4237    6.1630    9.8027 O   0  0  0  0  0  0  0  0  0  0  0  0
   15.0952    7.5095   11.6537 C   0  0  0  0  0  0  0  0  0  0  0  0
   15.3773    6.3184   12.3893 C   0  0  0  0  0  0  0  0  0  0  0  0
   15.7037    5.4109   13.0350 N   0  0  0  0  0  0  0  0  0  0  0  0
   15.3991    9.7807   17.1965 C   0  0  0  0  0  0  0  0  0  0  0  0
   16.2350   10.1183   18.4110 C   0  0  0  0  0  0  0  0  0  0  0  0
   15.5607   11.2157   17.6456 C   0  0  0  0  0  0  0  0  0  0  0  0
  1  2  1  0
  3  2  1  1
  3  4  1  0
  4  5  2  0
  4  6  1  0
  6  7  1  0
  7  8  2  0
  8  9  1  0
  9 10  1  0
 10 11  2  0
 10 12  1  0
 12 13  1  0
 13 14  1  0
  8 15  1  0
 15 16  2  0
 16 17  1  0
 17 18  1  0
 17 19  2  0
 19 20  1  0
 20 21  3  0
  3 22  1  0
 22 23  1  0
 23 24  1  0
 19  7  1  0
 24 22  1  0
M  END
>  <HIPPO ID>  (94) 
54337

>  <alias>  (94) 
None

>  <ref_mols>  (94) 
c0553a,c0935a

>  <submitter_email>  (94) 
None

>  <ref_pdb>  (94) 
c0270a

>  <inchikey>  (94) 
UQUIYLPWSSSUNX-CQSZACIVSA-N

>  <generation_date>  (94) 
None

>  <original ID>  (94) 
UQUIYLPWSSSUNX-CQSZACIVSA-N

>  <tags>  (94) 
[]

>  <exports>  (94) 
nan

>  <method>  (94) 
None

>  <submitter_name>  (94) 
None

>  <original SMILES>  (94) 
CN[C@@H](C(=O)Nc1c(NC(=O)COC)ccc(O)c1C#N)C1CC1

>  <ref_url>  (94) 
None

$$$$
BYRMYQLVGFNMHG-SNVBAGLBSA-N
     RDKit          3D

 24 24  0  0  0  0  0  0  0  0999 V2000
   13.5625   12.7611   11.0436 C   0  0  0  0  0  0  0  0  0  0  0  0
   13.7199   13.0765   12.5060 C   0  0  0  0  0  0  0  0  0  0  0  0
   14.5658   14.2156   12.6581 O   0  0  0  0  0  0  0  0  0  0  0  0
   15.8119   13.9673   13.2947 C   0  0  2  0  0  0  0  0  0  0  0  0
   16.6159   15.2521   13.3760 C   0  0  0  0  0  0  0  0  0  0  0  0
   16.5937   12.8686   12.5549 C   0  0  0  0  0  0  0  0  0  0  0  0
   17.3333   13.0760   11.6046 O   0  0  0  0  0  0  0  0  0  0  0  0
   16.2585   11.6316   13.0761 N   0  0  0  0  0  0  0  0  0  0  0  0
   16.0926   10.4208   12.3824 C   0  0  0  0  0  0  0  0  0  0  0  0
   16.3560   10.3609   11.0023 C   0  0  0  0  0  0  0  0  0  0  0  0
   15.9005    9.3046   10.2313 C   0  0  0  0  0  0  0  0  0  0  0  0
   15.2316    8.2744   10.8589 C   0  0  0  0  0  0  0  0  0  0  0  0
   14.7532    7.2327   10.1188 O   0  0  0  0  0  0  0  0  0  0  0  0
   15.0538    8.2522   12.2598 C   0  0  0  0  0  0  0  0  0  0  0  0
   14.5477    7.0271   12.8043 C   0  0  0  0  0  0  0  0  0  0  0  0
   14.2131    6.0207   13.2779 N   0  0  0  0  0  0  0  0  0  0  0  0
   15.4664    9.3431   13.0715 C   0  0  0  0  0  0  0  0  0  0  0  0
   15.2756    9.3576   14.5341 N   0  0  0  0  0  0  0  0  0  0  0  0
   16.2357    9.9439   15.4542 C   0  0  0  0  0  0  0  0  0  0  0  0
   14.1973    8.6957   15.1361 C   0  0  0  0  0  0  0  0  0  0  0  0
   13.0633    8.7166   14.6535 O   0  0  0  0  0  0  0  0  0  0  0  0
   14.4674    7.9481   16.4587 C   0  0  0  0  0  0  0  0  0  0  0  0
   14.9827    6.5944   16.2359 N   0  0  0  0  0  0  0  0  0  0  0  0
   16.4011    6.5045   15.9418 C   0  0  0  0  0  0  0  0  0  0  0  0
  1  2  1  0
  2  3  1  0
  3  4  1  0
  4  5  1  6
  4  6  1  0
  6  7  2  0
  6  8  1  0
  8  9  1  0
  9 10  2  0
 10 11  1  0
 11 12  2  0
 12 13  1  0
 12 14  1  0
 14 15  1  0
 15 16  3  0
 14 17  2  0
 17 18  1  0
 18 19  1  0
 18 20  1  0
 20 21  2  0
 20 22  1  0
 22 23  1  0
 23 24  1  0
 17  9  1  0
M  END
>  <HIPPO ID>  (95) 
54988

>  <alias>  (95) 
None

>  <ref_mols>  (95) 
c0553a,c0935a

>  <submitter_email>  (95) 
None

>  <ref_pdb>  (95) 
c0270a

>  <inchikey>  (95) 
BYRMYQLVGFNMHG-SNVBAGLBSA-N

>  <generation_date>  (95) 
None

>  <original ID>  (95) 
BYRMYQLVGFNMHG-SNVBAGLBSA-N

>  <tags>  (95) 
[]

>  <exports>  (95) 
nan

>  <method>  (95) 
None

>  <submitter_name>  (95) 
None

>  <original SMILES>  (95) 
CCO[C@H](C)C(=O)Nc1ccc(O)c(C#N)c1N(C)C(=O)CNC

>  <ref_url>  (95) 
None

$$$$
BYRMYQLVGFNMHG-JTQLQIEISA-N
     RDKit          3D

 24 24  0  0  0  0  0  0  0  0999 V2000
   19.2391   15.7742   12.1128 C   0  0  0  0  0  0  0  0  0  0  0  0
   18.2613   15.0769   13.0376 C   0  0  0  0  0  0  0  0  0  0  0  0
   17.1885   14.5013   12.2834 O   0  0  0  0  0  0  0  0  0  0  0  0
   16.1196   14.0462   13.1116 C   0  0  1  0  0  0  0  0  0  0  0  0
   15.1851   15.1750   13.5025 C   0  0  0  0  0  0  0  0  0  0  0  0
   15.3576   12.8879   12.4316 C   0  0  0  0  0  0  0  0  0  0  0  0
   14.1382   12.7944   12.3772 O   0  0  0  0  0  0  0  0  0  0  0  0
   16.2332   11.8918   12.0121 N   0  0  0  0  0  0  0  0  0  0  0  0
   15.7392   10.6241   11.6347 C   0  0  0  0  0  0  0  0  0  0  0  0
   15.7760   10.3720   10.2543 C   0  0  0  0  0  0  0  0  0  0  0  0
   15.3319    9.1796    9.7170 C   0  0  0  0  0  0  0  0  0  0  0  0
   14.9426    8.1796   10.5766 C   0  0  0  0  0  0  0  0  0  0  0  0
   14.5704    6.9697   10.0637 O   0  0  0  0  0  0  0  0  0  0  0  0
   14.9790    8.3635   11.9746 C   0  0  0  0  0  0  0  0  0  0  0  0
   14.8553    7.1656   12.7532 C   0  0  0  0  0  0  0  0  0  0  0  0
   14.8685    6.1991   13.3981 N   0  0  0  0  0  0  0  0  0  0  0  0
   15.3107    9.6241   12.5582 C   0  0  0  0  0  0  0  0  0  0  0  0
   15.3748    9.7683   14.0174 N   0  0  0  0  0  0  0  0  0  0  0  0
   15.9471   10.9304   14.6504 C   0  0  0  0  0  0  0  0  0  0  0  0
   14.5570    9.0136   14.8783 C   0  0  0  0  0  0  0  0  0  0  0  0
   13.3695    8.7835   14.6541 O   0  0  0  0  0  0  0  0  0  0  0  0
   15.2910    8.5052   16.1392 C   0  0  0  0  0  0  0  0  0  0  0  0
   15.0564    7.0815   16.3967 N   0  0  0  0  0  0  0  0  0  0  0  0
   13.7789    6.8322   17.0411 C   0  0  0  0  0  0  0  0  0  0  0  0
  1  2  1  0
  2  3  1  0
  3  4  1  0
  4  5  1  6
  4  6  1  0
  6  7  2  0
  6  8  1  0
  8  9  1  0
  9 10  2  0
 10 11  1  0
 11 12  2  0
 12 13  1  0
 12 14  1  0
 14 15  1  0
 15 16  3  0
 14 17  2  0
 17 18  1  0
 18 19  1  0
 18 20  1  0
 20 21  2  0
 20 22  1  0
 22 23  1  0
 23 24  1  0
 17  9  1  0
M  END
>  <HIPPO ID>  (96) 
54989

>  <alias>  (96) 
None

>  <ref_mols>  (96) 
c0553a,c0935a

>  <submitter_email>  (96) 
None

>  <ref_pdb>  (96) 
c0270a

>  <inchikey>  (96) 
BYRMYQLVGFNMHG-JTQLQIEISA-N

>  <generation_date>  (96) 
None

>  <original ID>  (96) 
BYRMYQLVGFNMHG-JTQLQIEISA-N

>  <tags>  (96) 
[]

>  <exports>  (96) 
nan

>  <method>  (96) 
None

>  <submitter_name>  (96) 
None

>  <original SMILES>  (96) 
CCO[C@@H](C)C(=O)Nc1ccc(O)c(C#N)c1N(C)C(=O)CNC

>  <ref_url>  (96) 
None

$$$$
LNJPBKNBYJSJID-GUYCJALGSA-N
     RDKit          3D

 25 27  0  0  0  0  0  0  0  0999 V2000
   16.1584   10.1522   14.2679 C   0  0  0  0  0  0  0  0  0  0  0  0
   15.4646    8.8696   14.0898 N   0  0  0  0  0  0  0  0  0  0  0  0
   15.3456    8.2701   12.8249 C   0  0  0  0  0  0  0  0  0  0  0  0
   14.9639    8.9529   11.6510 C   0  0  0  0  0  0  0  0  0  0  0  0
   14.7644   10.3129   11.7498 N   0  0  0  0  0  0  0  0  0  0  0  0
   14.6968   11.2528   10.7796 C   0  0  0  0  0  0  0  0  0  0  0  0
   14.7792   11.1439    9.5687 O   0  0  0  0  0  0  0  0  0  0  0  0
   14.4384   12.5681   11.3893 C   0  0  2  0  0  0  0  0  0  0  0  0
   13.2543   13.2800   10.8991 C   0  0  0  0  0  0  0  0  0  0  0  0
   15.5460   13.2936   12.1391 C   0  0  0  0  0  0  0  0  0  0  0  0
   14.5194   12.5924   12.8370 O   0  0  0  0  0  0  0  0  0  0  0  0
   14.6802    8.2909   10.4537 C   0  0  0  0  0  0  0  0  0  0  0  0
   14.7498    6.9153   10.4024 C   0  0  0  0  0  0  0  0  0  0  0  0
   15.2988    6.2350   11.4722 C   0  0  0  0  0  0  0  0  0  0  0  0
   15.5860    4.9095   11.3322 O   0  0  0  0  0  0  0  0  0  0  0  0
   15.6062    6.8962   12.6649 C   0  0  0  0  0  0  0  0  0  0  0  0
   16.2389    6.1781   13.7221 C   0  0  0  0  0  0  0  0  0  0  0  0
   16.7833    5.6704   14.6131 N   0  0  0  0  0  0  0  0  0  0  0  0
   14.3607    8.6935   15.0919 C   0  0  2  0  0  0  0  0  0  0  0  0
   14.9643    8.7340   16.5217 C   0  0  0  0  0  0  0  0  0  0  0  0
   16.0538    7.9457   16.7585 N   0  0  0  0  0  0  0  0  0  0  0  0
   14.5085    9.4589   17.4031 O   0  0  0  0  0  0  0  0  0  0  0  0
   13.4176    7.5382   14.8321 C   0  0  0  0  0  0  0  0  0  0  0  0
   12.4172    7.0948   15.8739 C   0  0  0  0  0  0  0  0  0  0  0  0
   13.5386    6.1786   15.4700 C   0  0  0  0  0  0  0  0  0  0  0  0
  1  2  1  0
  2  3  1  0
  3  4  1  0
  4  5  1  0
  5  6  1  0
  6  7  2  0
  6  8  1  0
  8  9  1  1
  8 10  1  0
 10 11  1  0
  4 12  2  0
 12 13  1  0
 13 14  2  0
 14 15  1  0
 14 16  1  0
 16 17  1  0
 17 18  3  0
 19  2  1  6
 19 20  1  0
 20 21  1  0
 20 22  2  0
 19 23  1  0
 23 24  1  0
 24 25  1  0
 16  3  2  0
 25 23  1  0
 11  8  1  0
M  END
>  <HIPPO ID>  (97) 
55391

>  <alias>  (97) 
None

>  <ref_mols>  (97) 
c0553a,c0935a

>  <submitter_email>  (97) 
None

>  <ref_pdb>  (97) 
c0270a

>  <inchikey>  (97) 
LNJPBKNBYJSJID-GUYCJALGSA-N

>  <generation_date>  (97) 
None

>  <original ID>  (97) 
LNJPBKNBYJSJID-GUYCJALGSA-N

>  <tags>  (97) 
[]

>  <exports>  (97) 
nan

>  <method>  (97) 
None

>  <submitter_name>  (97) 
None

>  <original SMILES>  (97) 
CN(c1c(NC(=O)[C@]2(C)CO2)ccc(O)c1C#N)[C@H](C(N)=O)C1CC1

>  <ref_url>  (97) 
None

$$$$
LNJPBKNBYJSJID-SUMWQHHRSA-N
     RDKit          3D

 25 27  0  0  0  0  0  0  0  0999 V2000
   15.7589   10.7850   15.0231 C   0  0  0  0  0  0  0  0  0  0  0  0
   15.0284    9.7140   14.3106 N   0  0  0  0  0  0  0  0  0  0  0  0
   15.0532    9.7715   12.8973 C   0  0  0  0  0  0  0  0  0  0  0  0
   14.8422   11.0125   12.2122 C   0  0  0  0  0  0  0  0  0  0  0  0
   14.5454   12.2040   12.9086 N   0  0  0  0  0  0  0  0  0  0  0  0
   15.2583   13.3683   12.6571 C   0  0  0  0  0  0  0  0  0  0  0  0
   16.0799   13.4822   11.7520 O   0  0  0  0  0  0  0  0  0  0  0  0
   15.0887   14.4890   13.6470 C   0  0  1  0  0  0  0  0  0  0  0  0
   14.3253   14.3234   14.9262 C   0  0  0  0  0  0  0  0  0  0  0  0
   16.1589   15.5750   13.6484 C   0  0  0  0  0  0  0  0  0  0  0  0
   14.8794   15.7821   13.0484 O   0  0  0  0  0  0  0  0  0  0  0  0
   14.8343   11.1270   10.8078 C   0  0  0  0  0  0  0  0  0  0  0  0
   15.0070   10.0354    9.9907 C   0  0  0  0  0  0  0  0  0  0  0  0
   15.1872    8.8222   10.6076 C   0  0  0  0  0  0  0  0  0  0  0  0
   15.2525    7.6982    9.8432 O   0  0  0  0  0  0  0  0  0  0  0  0
   15.2685    8.6793   12.0160 C   0  0  0  0  0  0  0  0  0  0  0  0
   15.6174    7.3551   12.4266 C   0  0  0  0  0  0  0  0  0  0  0  0
   15.8936    6.2624   12.7146 N   0  0  0  0  0  0  0  0  0  0  0  0
   14.8381    8.4952   15.1817 C   0  0  2  0  0  0  0  0  0  0  0  0
   16.1831    7.7649   15.5032 C   0  0  0  0  0  0  0  0  0  0  0  0
   16.2425    6.4061   15.4575 N   0  0  0  0  0  0  0  0  0  0  0  0
   17.2010    8.3586   15.8587 O   0  0  0  0  0  0  0  0  0  0  0  0
   13.6306    7.6628   14.7738 C   0  0  0  0  0  0  0  0  0  0  0  0
   12.3997    7.5765   15.6560 C   0  0  0  0  0  0  0  0  0  0  0  0
   13.2634    6.3729   15.4710 C   0  0  0  0  0  0  0  0  0  0  0  0
  1  2  1  0
  2  3  1  0
  3  4  1  0
  4  5  1  0
  5  6  1  0
  6  7  2  0
  6  8  1  0
  8  9  1  1
  8 10  1  0
 10 11  1  0
  4 12  2  0
 12 13  1  0
 13 14  2  0
 14 15  1  0
 14 16  1  0
 16 17  1  0
 17 18  3  0
 19  2  1  6
 19 20  1  0
 20 21  1  0
 20 22  2  0
 19 23  1  0
 23 24  1  0
 24 25  1  0
 16  3  2  0
 25 23  1  0
 11  8  1  0
M  END
>  <HIPPO ID>  (98) 
55392

>  <alias>  (98) 
None

>  <ref_mols>  (98) 
c0553a,c0935a

>  <submitter_email>  (98) 
None

>  <ref_pdb>  (98) 
c0270a

>  <inchikey>  (98) 
LNJPBKNBYJSJID-SUMWQHHRSA-N

>  <generation_date>  (98) 
None

>  <original ID>  (98) 
LNJPBKNBYJSJID-SUMWQHHRSA-N

>  <tags>  (98) 
[]

>  <exports>  (98) 
nan

>  <method>  (98) 
None

>  <submitter_name>  (98) 
None

>  <original SMILES>  (98) 
CN(c1c(NC(=O)[C@@]2(C)CO2)ccc(O)c1C#N)[C@H](C(N)=O)C1CC1

>  <ref_url>  (98) 
None

$$$$
LNJPBKNBYJSJID-DYVFJYSZSA-N
     RDKit          3D

 25 27  0  0  0  0  0  0  0  0999 V2000
   16.0227   10.1791   14.5484 C   0  0  0  0  0  0  0  0  0  0  0  0
   15.5318    8.8150   14.2898 N   0  0  0  0  0  0  0  0  0  0  0  0
   15.3700    8.2688   12.9955 C   0  0  0  0  0  0  0  0  0  0  0  0
   15.0988    9.0561   11.8260 C   0  0  0  0  0  0  0  0  0  0  0  0
   14.9645   10.4308   11.9387 N   0  0  0  0  0  0  0  0  0  0  0  0
   14.9070   11.3933   10.9780 C   0  0  0  0  0  0  0  0  0  0  0  0
   14.9916   11.3165    9.7652 O   0  0  0  0  0  0  0  0  0  0  0  0
   14.5376   12.6805   11.6002 C   0  0  2  0  0  0  0  0  0  0  0  0
   13.1417   13.0773   11.3390 C   0  0  0  0  0  0  0  0  0  0  0  0
   15.5631   13.6199   12.2028 C   0  0  0  0  0  0  0  0  0  0  0  0
   14.8387   12.7260   13.0300 O   0  0  0  0  0  0  0  0  0  0  0  0
   14.8325    8.4980   10.5643 C   0  0  0  0  0  0  0  0  0  0  0  0
   14.7831    7.1392   10.4021 C   0  0  0  0  0  0  0  0  0  0  0  0
   15.1709    6.3415   11.4472 C   0  0  0  0  0  0  0  0  0  0  0  0
   15.3061    5.0159   11.1358 O   0  0  0  0  0  0  0  0  0  0  0  0
   15.4781    6.8811   12.7109 C   0  0  0  0  0  0  0  0  0  0  0  0
   15.9879    5.9277   13.6331 C   0  0  0  0  0  0  0  0  0  0  0  0
   16.3480    5.0696   14.3266 N   0  0  0  0  0  0  0  0  0  0  0  0
   15.2783    8.0323   15.5495 C   0  0  1  0  0  0  0  0  0  0  0  0
   16.6177    7.6526   16.2590 C   0  0  0  0  0  0  0  0  0  0  0  0
   16.6774    6.4089   16.8259 N   0  0  0  0  0  0  0  0  0  0  0  0
   17.5866    8.3975   16.3778 O   0  0  0  0  0  0  0  0  0  0  0  0
   14.3273    8.8060   16.4466 C   0  0  0  0  0  0  0  0  0  0  0  0
   13.8646    8.2274   17.7660 C   0  0  0  0  0  0  0  0  0  0  0  0
   14.7437    9.4458   17.7557 C   0  0  0  0  0  0  0  0  0  0  0  0
  1  2  1  0
  2  3  1  0
  3  4  1  0
  4  5  1  0
  5  6  1  0
  6  7  2  0
  6  8  1  0
  8  9  1  1
  8 10  1  0
 10 11  1  0
  4 12  2  0
 12 13  1  0
 13 14  2  0
 14 15  1  0
 14 16  1  0
 16 17  1  0
 17 18  3  0
 19  2  1  6
 19 20  1  0
 20 21  1  0
 20 22  2  0
 19 23  1  0
 23 24  1  0
 24 25  1  0
 16  3  2  0
 25 23  1  0
 11  8  1  0
M  END
>  <HIPPO ID>  (99) 
55393

>  <alias>  (99) 
None

>  <ref_mols>  (99) 
c0553a,c0935a

>  <submitter_email>  (99) 
None

>  <ref_pdb>  (99) 
c0270a

>  <inchikey>  (99) 
LNJPBKNBYJSJID-DYVFJYSZSA-N

>  <generation_date>  (99) 
None

>  <original ID>  (99) 
LNJPBKNBYJSJID-DYVFJYSZSA-N

>  <tags>  (99) 
[]

>  <exports>  (99) 
nan

>  <method>  (99) 
None

>  <submitter_name>  (99) 
None

>  <original SMILES>  (99) 
CN(c1c(NC(=O)[C@]2(C)CO2)ccc(O)c1C#N)[C@@H](C(N)=O)C1CC1

>  <ref_url>  (99) 
None

$$$$
PWNONUMESMNYGA-VIFPVBQESA-N
     RDKit          3D

 25 26  0  0  0  0  0  0  0  0999 V2000
   13.5685    8.9481    9.2248 C   0  0  0  0  0  0  0  0  0  0  0  0
   14.0524    8.2119   10.2235 C   0  0  0  0  0  0  0  0  0  0  0  0
   13.9148    6.7433   10.2105 C   0  0  0  0  0  0  0  0  0  0  0  0
   13.3297    6.0518    9.4051 O   0  0  0  0  0  0  0  0  0  0  0  0
   14.5115    6.3371   11.3515 N   0  0  0  0  0  0  0  0  0  0  0  0
   14.9463    7.3945   12.0971 C   0  0  0  0  0  0  0  0  0  0  0  0
   15.5195    7.2300   13.1529 O   0  0  0  0  0  0  0  0  0  0  0  0
   14.6624    8.5907   11.4152 N   0  0  0  0  0  0  0  0  0  0  0  0
   15.3645    9.8114   11.7204 C   0  0  0  0  0  0  0  0  0  0  0  0
   15.2104   10.5390   12.9192 C   0  0  0  0  0  0  0  0  0  0  0  0
   14.2400   10.2655   13.8802 N   0  0  0  0  0  0  0  0  0  0  0  0
   14.3864    9.4416   14.9588 C   0  0  0  0  0  0  0  0  0  0  0  0
   13.3596    8.8452   15.3133 O   0  0  0  0  0  0  0  0  0  0  0  0
   15.6925    9.2898   15.7680 C   0  0  2  0  0  0  0  0  0  0  0  0
   16.3101   10.6165   16.1559 C   0  0  0  0  0  0  0  0  0  0  0  0
   16.7002    8.4623   15.2082 O   0  0  0  0  0  0  0  0  0  0  0  0
   16.6326    7.1426   15.7454 C   0  0  0  0  0  0  0  0  0  0  0  0
   17.6881    6.2475   15.1393 C   0  0  0  0  0  0  0  0  0  0  0  0
   15.8589   11.7672   13.0886 C   0  0  0  0  0  0  0  0  0  0  0  0
   16.8800   12.1408   12.2365 C   0  0  0  0  0  0  0  0  0  0  0  0
   17.1803   11.3362   11.1591 C   0  0  0  0  0  0  0  0  0  0  0  0
   18.3339   11.6331   10.5037 O   0  0  0  0  0  0  0  0  0  0  0  0
   16.3366   10.2828   10.8209 C   0  0  0  0  0  0  0  0  0  0  0  0
   16.4331    9.6893    9.5453 C   0  0  0  0  0  0  0  0  0  0  0  0
   16.2982    9.1640    8.5287 N   0  0  0  0  0  0  0  0  0  0  0  0
  1  2  2  0
  2  3  1  0
  3  4  2  0
  3  5  1  0
  5  6  1  0
  6  7  2  0
  6  8  1  0
  8  9  1  0
  9 10  2  0
 10 11  1  0
 11 12  1  0
 12 13  2  0
 12 14  1  0
 14 15  1  6
 14 16  1  0
 16 17  1  0
 17 18  1  0
 10 19  1  0
 19 20  2  0
 20 21  1  0
 21 22  1  0
 21 23  2  0
 23 24  1  0
 24 25  3  0
  8  2  1  0
 23  9  1  0
M  END
>  <HIPPO ID>  (100) 
56083

>  <alias>  (100) 
None

>  <ref_mols>  (100) 
c0553a,c0935a

>  <submitter_email>  (100) 
None

>  <ref_pdb>  (100) 
c0270a

>  <inchikey>  (100) 
PWNONUMESMNYGA-VIFPVBQESA-N

>  <generation_date>  (100) 
None

>  <original ID>  (100) 
PWNONUMESMNYGA-VIFPVBQESA-N

>  <tags>  (100) 
[]

>  <exports>  (100) 
nan

>  <method>  (100) 
None

>  <submitter_name>  (100) 
None

>  <original SMILES>  (100) 
C=C1C(=O)NC(=O)N1c1c(NC(=O)[C@H](C)OCC)ccc(O)c1C#N

>  <ref_url>  (100) 
None

$$$$
SUOGJPMIZNUKGU-GFCCVEGCSA-N
     RDKit          3D

 25 26  0  0  0  0  0  0  0  0999 V2000
   16.0371   12.2721   16.9339 C   0  0  0  0  0  0  0  0  0  0  0  0
   16.6723   10.8948   16.9636 C   0  0  0  0  0  0  0  0  0  0  0  0
   16.3718   10.2281   15.7364 O   0  0  0  0  0  0  0  0  0  0  0  0
   15.3471    9.2474   15.8752 C   0  0  2  0  0  0  0  0  0  0  0  0
   15.8848    7.8574   16.2561 C   0  0  0  0  0  0  0  0  0  0  0  0
   17.3769    7.6374   16.0920 C   0  0  0  0  0  0  0  0  0  0  0  0
   14.3506    9.2021   14.6910 C   0  0  0  0  0  0  0  0  0  0  0  0
   13.5244    8.3025   14.5498 O   0  0  0  0  0  0  0  0  0  0  0  0
   14.2401   10.3945   14.0041 N   0  0  0  0  0  0  0  0  0  0  0  0
   15.0646   10.6401   12.8795 C   0  0  0  0  0  0  0  0  0  0  0  0
   15.6779   11.9079   12.9185 C   0  0  0  0  0  0  0  0  0  0  0  0
   16.7342   12.2018   12.0786 C   0  0  0  0  0  0  0  0  0  0  0  0
   17.0853   11.2941   11.1058 C   0  0  0  0  0  0  0  0  0  0  0  0
   18.2490   11.5434   10.4489 O   0  0  0  0  0  0  0  0  0  0  0  0
   16.2719   10.1944   10.8626 C   0  0  0  0  0  0  0  0  0  0  0  0
   16.3127    9.5597    9.6056 C   0  0  0  0  0  0  0  0  0  0  0  0
   16.1481    9.0116    8.6060 N   0  0  0  0  0  0  0  0  0  0  0  0
   15.3188    9.7672   11.8010 C   0  0  0  0  0  0  0  0  0  0  0  0
   14.6852    8.4916   11.6099 N   0  0  0  0  0  0  0  0  0  0  0  0
   15.1793    7.3301   12.1228 C   0  0  0  0  0  0  0  0  0  0  0  0
   16.1223    7.2631   12.9821 N   0  0  0  0  0  0  0  0  0  0  0  0
   14.6089    6.2313   11.5701 N   0  0  0  0  0  0  0  0  0  0  0  0
   13.8742    6.6362   10.3890 C   0  0  0  0  0  0  0  0  0  0  0  0
   13.9910    8.1442   10.4518 C   0  0  0  0  0  0  0  0  0  0  0  0
   13.5213    8.8821    9.5974 O   0  0  0  0  0  0  0  0  0  0  0  0
  1  2  1  0
  2  3  1  0
  3  4  1  0
  4  5  1  6
  5  6  1  0
  4  7  1  0
  7  8  2  0
  7  9  1  0
  9 10  1  0
 10 11  2  0
 11 12  1  0
 12 13  2  0
 13 14  1  0
 13 15  1  0
 15 16  1  0
 16 17  3  0
 15 18  2  0
 18 19  1  0
 19 20  1  0
 20 21  2  3
 20 22  1  0
 22 23  1  0
 23 24  1  0
 24 25  2  0
 18 10  1  0
 24 19  1  0
M  END
>  <HIPPO ID>  (101) 
56293

>  <alias>  (101) 
None

>  <ref_mols>  (101) 
c0553a,c0935a

>  <submitter_email>  (101) 
None

>  <ref_pdb>  (101) 
c0270a

>  <inchikey>  (101) 
SUOGJPMIZNUKGU-GFCCVEGCSA-N

>  <generation_date>  (101) 
None

>  <original ID>  (101) 
SUOGJPMIZNUKGU-GFCCVEGCSA-N

>  <tags>  (101) 
[]

>  <exports>  (101) 
nan

>  <method>  (101) 
None

>  <submitter_name>  (101) 
None

>  <original SMILES>  (101) 
CCO[C@H](CC)C(=O)Nc1ccc(O)c(C#N)c1N1C(=N)NCC1=O

>  <ref_url>  (101) 
None

$$$$
SUOGJPMIZNUKGU-LBPRGKRZSA-N
     RDKit          3D

 25 26  0  0  0  0  0  0  0  0999 V2000
   18.4287    9.1023   17.4139 C   0  0  0  0  0  0  0  0  0  0  0  0
   17.1033    9.8071   17.1645 C   0  0  0  0  0  0  0  0  0  0  0  0
   16.7997    9.9092   15.7867 O   0  0  0  0  0  0  0  0  0  0  0  0
   16.0533    8.8653   15.1599 C   0  0  1  0  0  0  0  0  0  0  0  0
   16.3097    7.3904   15.4814 C   0  0  0  0  0  0  0  0  0  0  0  0
   15.8548    6.8420   16.8228 C   0  0  0  0  0  0  0  0  0  0  0  0
   14.5641    9.2566   15.1563 C   0  0  0  0  0  0  0  0  0  0  0  0
   13.8365    9.1195   16.1401 O   0  0  0  0  0  0  0  0  0  0  0  0
   14.0336    9.8978   14.0636 N   0  0  0  0  0  0  0  0  0  0  0  0
   14.7865   10.2861   12.9676 C   0  0  0  0  0  0  0  0  0  0  0  0
   15.1586   11.6423   12.9746 C   0  0  0  0  0  0  0  0  0  0  0  0
   16.1922   12.0664   12.1635 C   0  0  0  0  0  0  0  0  0  0  0  0
   16.7279   11.1737   11.2570 C   0  0  0  0  0  0  0  0  0  0  0  0
   17.8533   11.5075   10.5774 O   0  0  0  0  0  0  0  0  0  0  0  0
   16.1200    9.9314   11.0479 C   0  0  0  0  0  0  0  0  0  0  0  0
   16.0277    9.4411    9.7119 C   0  0  0  0  0  0  0  0  0  0  0  0
   15.6076    9.0155    8.7218 N   0  0  0  0  0  0  0  0  0  0  0  0
   15.2452    9.3709   12.0007 C   0  0  0  0  0  0  0  0  0  0  0  0
   14.7771    8.0226   11.8053 N   0  0  0  0  0  0  0  0  0  0  0  0
   15.4965    6.9771   11.3568 C   0  0  0  0  0  0  0  0  0  0  0  0
   16.6585    6.6745   11.8011 N   0  0  0  0  0  0  0  0  0  0  0  0
   14.7633    6.0597   10.6666 N   0  0  0  0  0  0  0  0  0  0  0  0
   13.4196    6.2564   11.1687 C   0  0  0  0  0  0  0  0  0  0  0  0
   13.6745    7.3364   12.2210 C   0  0  0  0  0  0  0  0  0  0  0  0
   13.0357    7.3788   13.2595 O   0  0  0  0  0  0  0  0  0  0  0  0
  1  2  1  0
  2  3  1  0
  3  4  1  0
  4  5  1  1
  5  6  1  0
  4  7  1  0
  7  8  2  0
  7  9  1  0
  9 10  1  0
 10 11  2  0
 11 12  1  0
 12 13  2  0
 13 14  1  0
 13 15  1  0
 15 16  1  0
 16 17  3  0
 15 18  2  0
 18 19  1  0
 19 20  1  0
 20 21  2  3
 20 22  1  0
 22 23  1  0
 23 24  1  0
 24 25  2  0
 18 10  1  0
 24 19  1  0
M  END
>  <HIPPO ID>  (102) 
56294

>  <alias>  (102) 
None

>  <ref_mols>  (102) 
c0553a,c0935a

>  <submitter_email>  (102) 
None

>  <ref_pdb>  (102) 
c0270a

>  <inchikey>  (102) 
SUOGJPMIZNUKGU-LBPRGKRZSA-N

>  <generation_date>  (102) 
None

>  <original ID>  (102) 
SUOGJPMIZNUKGU-LBPRGKRZSA-N

>  <tags>  (102) 
[]

>  <exports>  (102) 
nan

>  <method>  (102) 
None

>  <submitter_name>  (102) 
None

>  <original SMILES>  (102) 
CCO[C@@H](CC)C(=O)Nc1ccc(O)c(C#N)c1N1C(=N)NCC1=O

>  <ref_url>  (102) 
None

$$$$
HLCFQBRIWOGXRP-AWEZNQCLSA-N
     RDKit          3D

 25 25  0  0  0  0  0  0  0  0999 V2000
   13.4839   12.7510   11.1171 C   0  0  0  0  0  0  0  0  0  0  0  0
   13.6461   12.8246   12.6179 C   0  0  0  0  0  0  0  0  0  0  0  0
   14.7183   13.8009   13.0437 C   0  0  0  0  0  0  0  0  0  0  0  0
   16.1253   13.2443   13.2358 C   0  0  2  0  0  0  0  0  0  0  0  0
   17.0778   14.2943   13.1095 O   0  0  0  0  0  0  0  0  0  0  0  0
   16.9772   15.2787   14.1260 C   0  0  0  0  0  0  0  0  0  0  0  0
   16.4868   12.1070   12.2657 C   0  0  0  0  0  0  0  0  0  0  0  0
   17.1215   12.2725   11.2333 O   0  0  0  0  0  0  0  0  0  0  0  0
   16.0363   10.8863   12.7142 N   0  0  0  0  0  0  0  0  0  0  0  0
   15.6844    9.7681   11.9420 C   0  0  0  0  0  0  0  0  0  0  0  0
   15.6874    9.8249   10.5409 C   0  0  0  0  0  0  0  0  0  0  0  0
   15.1818    8.7786    9.7821 C   0  0  0  0  0  0  0  0  0  0  0  0
   14.6783    7.6633   10.4246 C   0  0  0  0  0  0  0  0  0  0  0  0
   14.1398    6.6408    9.7036 O   0  0  0  0  0  0  0  0  0  0  0  0
   14.7158    7.5551   11.8187 C   0  0  0  0  0  0  0  0  0  0  0  0
   14.1283    6.4026   12.4334 C   0  0  0  0  0  0  0  0  0  0  0  0
   13.6976    5.4812   12.9942 N   0  0  0  0  0  0  0  0  0  0  0  0
   15.2574    8.5933   12.6049 C   0  0  0  0  0  0  0  0  0  0  0  0
   15.4908    8.3858   14.0226 N   0  0  0  0  0  0  0  0  0  0  0  0
   16.2922    7.2195   14.3761 C   0  0  0  0  0  0  0  0  0  0  0  0
   15.0139    9.2487   15.0071 C   0  0  0  0  0  0  0  0  0  0  0  0
   14.3980   10.2843   14.7365 O   0  0  0  0  0  0  0  0  0  0  0  0
   15.2554    8.8804   16.4811 C   0  0  0  0  0  0  0  0  0  0  0  0
   14.0010    8.4556   17.1184 N   0  0  0  0  0  0  0  0  0  0  0  0
   13.5358    7.1593   16.6398 C   0  0  0  0  0  0  0  0  0  0  0  0
  1  2  1  0
  2  3  1  0
  4  3  1  6
  4  5  1  0
  5  6  1  0
  4  7  1  0
  7  8  2  0
  7  9  1  0
  9 10  1  0
 10 11  2  0
 11 12  1  0
 12 13  2  0
 13 14  1  0
 13 15  1  0
 15 16  1  0
 16 17  3  0
 15 18  2  0
 18 19  1  0
 19 20  1  0
 19 21  1  0
 21 22  2  0
 21 23  1  0
 23 24  1  0
 24 25  1  0
 18 10  1  0
M  END
>  <HIPPO ID>  (103) 
56323

>  <alias>  (103) 
None

>  <ref_mols>  (103) 
c0553a,c0935a

>  <submitter_email>  (103) 
None

>  <ref_pdb>  (103) 
c0270a

>  <inchikey>  (103) 
HLCFQBRIWOGXRP-AWEZNQCLSA-N

>  <generation_date>  (103) 
None

>  <original ID>  (103) 
HLCFQBRIWOGXRP-AWEZNQCLSA-N

>  <tags>  (103) 
[]

>  <exports>  (103) 
nan

>  <method>  (103) 
None

>  <submitter_name>  (103) 
None

>  <original SMILES>  (103) 
CCC[C@H](OC)C(=O)Nc1ccc(O)c(C#N)c1N(C)C(=O)CNC

>  <ref_url>  (103) 
None

$$$$
HLCFQBRIWOGXRP-CQSZACIVSA-N
     RDKit          3D

 25 25  0  0  0  0  0  0  0  0999 V2000
   17.4421   16.8019   14.5898 C   0  0  0  0  0  0  0  0  0  0  0  0
   16.3229   15.8397   14.2351 C   0  0  0  0  0  0  0  0  0  0  0  0
   16.8390   14.7232   13.3332 C   0  0  0  0  0  0  0  0  0  0  0  0
   15.7697   13.6686   13.0745 C   0  0  1  0  0  0  0  0  0  0  0  0
   14.7080   14.2156   12.3039 O   0  0  0  0  0  0  0  0  0  0  0  0
   13.8600   13.2357   11.7035 C   0  0  0  0  0  0  0  0  0  0  0  0
   16.4030   12.4521   12.3920 C   0  0  0  0  0  0  0  0  0  0  0  0
   17.2811   12.5287   11.5442 O   0  0  0  0  0  0  0  0  0  0  0  0
   15.7728   11.3009   12.8142 N   0  0  0  0  0  0  0  0  0  0  0  0
   15.6593   10.0806   12.1417 C   0  0  0  0  0  0  0  0  0  0  0  0
   15.8991    9.9992   10.7638 C   0  0  0  0  0  0  0  0  0  0  0  0
   15.4986    8.8803   10.0516 C   0  0  0  0  0  0  0  0  0  0  0  0
   14.9230    7.8214   10.7340 C   0  0  0  0  0  0  0  0  0  0  0  0
   14.5150    6.7182   10.0408 O   0  0  0  0  0  0  0  0  0  0  0  0
   14.7734    7.8428   12.1356 C   0  0  0  0  0  0  0  0  0  0  0  0
   14.3858    6.6279   12.7831 C   0  0  0  0  0  0  0  0  0  0  0  0
   14.1579    5.6511   13.3691 N   0  0  0  0  0  0  0  0  0  0  0  0
   15.1173    8.9959   12.8721 C   0  0  0  0  0  0  0  0  0  0  0  0
   15.0061    9.0905   14.3296 N   0  0  0  0  0  0  0  0  0  0  0  0
   16.2202    9.4240   15.0649 C   0  0  0  0  0  0  0  0  0  0  0  0
   13.9726    8.4464   15.0223 C   0  0  0  0  0  0  0  0  0  0  0  0
   12.7950    8.5352   14.6649 O   0  0  0  0  0  0  0  0  0  0  0  0
   14.3296    7.6821   16.3133 C   0  0  0  0  0  0  0  0  0  0  0  0
   15.4972    6.8115   16.0892 N   0  0  0  0  0  0  0  0  0  0  0  0
   15.9613    6.2257   17.3380 C   0  0  0  0  0  0  0  0  0  0  0  0
  1  2  1  0
  2  3  1  0
  4  3  1  6
  4  5  1  0
  5  6  1  0
  4  7  1  0
  7  8  2  0
  7  9  1  0
  9 10  1  0
 10 11  2  0
 11 12  1  0
 12 13  2  0
 13 14  1  0
 13 15  1  0
 15 16  1  0
 16 17  3  0
 15 18  2  0
 18 19  1  0
 19 20  1  0
 19 21  1  0
 21 22  2  0
 21 23  1  0
 23 24  1  0
 24 25  1  0
 18 10  1  0
M  END
>  <HIPPO ID>  (104) 
56324

>  <alias>  (104) 
None

>  <ref_mols>  (104) 
c0553a,c0935a

>  <submitter_email>  (104) 
None

>  <ref_pdb>  (104) 
c0270a

>  <inchikey>  (104) 
HLCFQBRIWOGXRP-CQSZACIVSA-N

>  <generation_date>  (104) 
None

>  <original ID>  (104) 
HLCFQBRIWOGXRP-CQSZACIVSA-N

>  <tags>  (104) 
[]

>  <exports>  (104) 
nan

>  <method>  (104) 
None

>  <submitter_name>  (104) 
None

>  <original SMILES>  (104) 
CCC[C@@H](OC)C(=O)Nc1ccc(O)c(C#N)c1N(C)C(=O)CNC

>  <ref_url>  (104) 
None

$$$$
FQICZWUUGNVQPM-CQSZACIVSA-N
     RDKit          3D

 25 25  0  0  0  0  0  0  0  0999 V2000
   14.9802   13.5896   15.3438 C   0  0  0  0  0  0  0  0  0  0  0  0
   15.6534   13.9876   14.0406 C   0  0  0  0  0  0  0  0  0  0  0  0
   15.9002   12.8273   13.2419 O   0  0  0  0  0  0  0  0  0  0  0  0
   15.1338   12.7772   12.0467 C   0  0  2  0  0  0  0  0  0  0  0  0
   13.6515   12.6210   12.3237 C   0  0  0  0  0  0  0  0  0  0  0  0
   12.8611   12.7719   11.0402 C   0  0  0  0  0  0  0  0  0  0  0  0
   15.4900   11.6534   11.0627 C   0  0  0  0  0  0  0  0  0  0  0  0
   15.0923   11.6594    9.8950 O   0  0  0  0  0  0  0  0  0  0  0  0
   16.2190   10.5938   11.5544 N   0  0  0  0  0  0  0  0  0  0  0  0
   15.5271    9.3422   11.4956 C   0  0  0  0  0  0  0  0  0  0  0  0
   15.2322    8.8892   10.1922 C   0  0  0  0  0  0  0  0  0  0  0  0
   14.5251    7.7312    9.9850 C   0  0  0  0  0  0  0  0  0  0  0  0
   14.3063    6.8974   11.0531 C   0  0  0  0  0  0  0  0  0  0  0  0
   13.8071    5.6535   10.8028 O   0  0  0  0  0  0  0  0  0  0  0  0
   14.6326    7.2927   12.3599 C   0  0  0  0  0  0  0  0  0  0  0  0
   14.5602    6.2866   13.3758 C   0  0  0  0  0  0  0  0  0  0  0  0
   14.6044    5.4927   14.2226 N   0  0  0  0  0  0  0  0  0  0  0  0
   15.1528    8.5883   12.6365 C   0  0  0  0  0  0  0  0  0  0  0  0
   15.3364    9.0067   14.0258 N   0  0  0  0  0  0  0  0  0  0  0  0
   16.0347   10.2173   14.3657 C   0  0  0  0  0  0  0  0  0  0  0  0
   14.3769    8.6447   14.9956 C   0  0  0  0  0  0  0  0  0  0  0  0
   13.1781    8.5068   14.7342 O   0  0  0  0  0  0  0  0  0  0  0  0
   14.8871    8.4614   16.4381 C   0  0  0  0  0  0  0  0  0  0  0  0
   15.7394    7.2788   16.6017 N   0  0  0  0  0  0  0  0  0  0  0  0
   17.1186    7.4450   16.1850 C   0  0  0  0  0  0  0  0  0  0  0  0
  1  2  1  0
  2  3  1  0
  3  4  1  0
  4  5  1  1
  5  6  1  0
  4  7  1  0
  7  8  2  0
  7  9  1  0
  9 10  1  0
 10 11  2  0
 11 12  1  0
 12 13  2  0
 13 14  1  0
 13 15  1  0
 15 16  1  0
 16 17  3  0
 15 18  2  0
 18 19  1  0
 19 20  1  0
 19 21  1  0
 21 22  2  0
 21 23  1  0
 23 24  1  0
 24 25  1  0
 18 10  1  0
M  END
>  <HIPPO ID>  (105) 
56381

>  <alias>  (105) 
None

>  <ref_mols>  (105) 
c0553a,c0935a

>  <submitter_email>  (105) 
None

>  <ref_pdb>  (105) 
c0270a

>  <inchikey>  (105) 
FQICZWUUGNVQPM-CQSZACIVSA-N

>  <generation_date>  (105) 
None

>  <original ID>  (105) 
FQICZWUUGNVQPM-CQSZACIVSA-N

>  <tags>  (105) 
[]

>  <exports>  (105) 
nan

>  <method>  (105) 
None

>  <submitter_name>  (105) 
None

>  <original SMILES>  (105) 
CCO[C@H](CC)C(=O)Nc1ccc(O)c(C#N)c1N(C)C(=O)CNC

>  <ref_url>  (105) 
None

$$$$
FQICZWUUGNVQPM-AWEZNQCLSA-N
     RDKit          3D

 25 25  0  0  0  0  0  0  0  0999 V2000
   11.2452   13.5255   10.3126 C   0  0  0  0  0  0  0  0  0  0  0  0
   12.7600   13.4471   10.4811 C   0  0  0  0  0  0  0  0  0  0  0  0
   13.2975   12.4197   11.3132 O   0  0  0  0  0  0  0  0  0  0  0  0
   14.3761   12.9227   12.0999 C   0  0  1  0  0  0  0  0  0  0  0  0
   13.9606   13.0604   13.5587 C   0  0  0  0  0  0  0  0  0  0  0  0
   14.3939   11.9796   14.4989 C   0  0  0  0  0  0  0  0  0  0  0  0
   15.7909   12.3795   11.8931 C   0  0  0  0  0  0  0  0  0  0  0  0
   16.7314   13.1588   11.6972 O   0  0  0  0  0  0  0  0  0  0  0  0
   16.1131   11.0691   12.0605 N   0  0  0  0  0  0  0  0  0  0  0  0
   15.3783    9.9746   11.5754 C   0  0  0  0  0  0  0  0  0  0  0  0
   15.2201    9.9305   10.1800 C   0  0  0  0  0  0  0  0  0  0  0  0
   14.7155    8.8017    9.5628 C   0  0  0  0  0  0  0  0  0  0  0  0
   14.4384    7.6881   10.3336 C   0  0  0  0  0  0  0  0  0  0  0  0
   14.0614    6.5288    9.7204 O   0  0  0  0  0  0  0  0  0  0  0  0
   14.5812    7.7036   11.7326 C   0  0  0  0  0  0  0  0  0  0  0  0
   14.4237    6.4555   12.4182 C   0  0  0  0  0  0  0  0  0  0  0  0
   14.3979    5.4481   12.9965 N   0  0  0  0  0  0  0  0  0  0  0  0
   15.0291    8.8668   12.4040 C   0  0  0  0  0  0  0  0  0  0  0  0
   15.1811    8.8599   13.8558 N   0  0  0  0  0  0  0  0  0  0  0  0
   16.3614    9.4023   14.4583 C   0  0  0  0  0  0  0  0  0  0  0  0
   14.2256    8.2890   14.7130 C   0  0  0  0  0  0  0  0  0  0  0  0
   13.0403    8.1432   14.4035 O   0  0  0  0  0  0  0  0  0  0  0  0
   14.6871    7.8277   16.1132 C   0  0  0  0  0  0  0  0  0  0  0  0
   15.0584    6.4088   16.1229 N   0  0  0  0  0  0  0  0  0  0  0  0
   16.4142    6.1344   15.6813 C   0  0  0  0  0  0  0  0  0  0  0  0
  1  2  1  0
  2  3  1  0
  3  4  1  0
  4  5  1  1
  5  6  1  0
  4  7  1  0
  7  8  2  0
  7  9  1  0
  9 10  1  0
 10 11  2  0
 11 12  1  0
 12 13  2  0
 13 14  1  0
 13 15  1  0
 15 16  1  0
 16 17  3  0
 15 18  2  0
 18 19  1  0
 19 20  1  0
 19 21  1  0
 21 22  2  0
 21 23  1  0
 23 24  1  0
 24 25  1  0
 18 10  1  0
M  END
>  <HIPPO ID>  (106) 
56382

>  <alias>  (106) 
None

>  <ref_mols>  (106) 
c0553a,c0935a

>  <submitter_email>  (106) 
None

>  <ref_pdb>  (106) 
c0270a

>  <inchikey>  (106) 
FQICZWUUGNVQPM-AWEZNQCLSA-N

>  <generation_date>  (106) 
None

>  <original ID>  (106) 
FQICZWUUGNVQPM-AWEZNQCLSA-N

>  <tags>  (106) 
[]

>  <exports>  (106) 
nan

>  <method>  (106) 
None

>  <submitter_name>  (106) 
None

>  <original SMILES>  (106) 
CCO[C@@H](CC)C(=O)Nc1ccc(O)c(C#N)c1N(C)C(=O)CNC

>  <ref_url>  (106) 
None

$$$$
UBJVEUQQFZZBRU-OAHLLOKOSA-N
     RDKit          3D

 25 26  0  0  0  0  0  0  0  0999 V2000
   16.0000    6.7736   15.6051 C   0  0  0  0  0  0  0  0  0  0  0  0
   16.6694    8.0565   15.3910 N   0  0  0  0  0  0  0  0  0  0  0  0
   15.8154    9.1605   15.8516 C   0  0  0  0  0  0  0  0  0  0  0  0
   14.7492    9.4909   14.8019 C   0  0  0  0  0  0  0  0  0  0  0  0
   13.5921    9.0834   14.8527 O   0  0  0  0  0  0  0  0  0  0  0  0
   15.2272   10.3959   13.8570 N   0  0  0  0  0  0  0  0  0  0  0  0
   14.8905   11.7910   14.1974 C   0  0  0  0  0  0  0  0  0  0  0  0
   15.2725   10.0865   12.4420 C   0  0  0  0  0  0  0  0  0  0  0  0
   15.9231   10.9904   11.6091 C   0  0  0  0  0  0  0  0  0  0  0  0
   16.9881   11.7218   12.1296 N   0  0  0  0  0  0  0  0  0  0  0  0
   17.2651   13.0229   11.8237 C   0  0  0  0  0  0  0  0  0  0  0  0
   16.3485   13.7855   11.5319 O   0  0  0  0  0  0  0  0  0  0  0  0
   18.7364   13.4652   12.0046 C   0  0  1  0  0  0  0  0  0  0  0  0
   19.3587   12.9081   13.1713 O   0  0  0  0  0  0  0  0  0  0  0  0
   20.6257   12.7979   12.4826 C   0  0  0  0  0  0  0  0  0  0  0  0
   19.8702   12.8806   11.1539 C   0  0  0  0  0  0  0  0  0  0  0  0
   20.5328   13.9298   10.3100 C   0  0  0  0  0  0  0  0  0  0  0  0
   19.6502   11.5009   10.5549 C   0  0  0  0  0  0  0  0  0  0  0  0
   15.8574   10.8908   10.2202 C   0  0  0  0  0  0  0  0  0  0  0  0
   15.1343    9.9236    9.5843 C   0  0  0  0  0  0  0  0  0  0  0  0
   14.6651    8.9230   10.3810 C   0  0  0  0  0  0  0  0  0  0  0  0
   14.0073    7.8989    9.7847 O   0  0  0  0  0  0  0  0  0  0  0  0
   14.8281    8.9341   11.7882 C   0  0  0  0  0  0  0  0  0  0  0  0
   14.6954    7.6637   12.4151 C   0  0  0  0  0  0  0  0  0  0  0  0
   14.7009    6.5668   12.7935 N   0  0  0  0  0  0  0  0  0  0  0  0
  1  2  1  0
  2  3  1  0
  3  4  1  0
  4  5  2  0
  4  6  1  0
  6  7  1  0
  6  8  1  0
  8  9  2  0
  9 10  1  0
 10 11  1  0
 11 12  2  0
 13 11  1  6
 13 14  1  0
 14 15  1  0
 15 16  1  0
 16 17  1  0
 16 18  1  0
  9 19  1  0
 19 20  2  0
 20 21  1  0
 21 22  1  0
 21 23  2  0
 23 24  1  0
 24 25  3  0
 23  8  1  0
 16 13  1  0
M  END
>  <HIPPO ID>  (107) 
56516

>  <alias>  (107) 
None

>  <ref_mols>  (107) 
c0553a,c0935a

>  <submitter_email>  (107) 
None

>  <ref_pdb>  (107) 
c0270a

>  <inchikey>  (107) 
UBJVEUQQFZZBRU-OAHLLOKOSA-N

>  <generation_date>  (107) 
None

>  <original ID>  (107) 
UBJVEUQQFZZBRU-OAHLLOKOSA-N

>  <tags>  (107) 
[]

>  <exports>  (107) 
nan

>  <method>  (107) 
None

>  <submitter_name>  (107) 
None

>  <original SMILES>  (107) 
CNCC(=O)N(C)c1c(NC(=O)[C@H]2OCC2(C)C)ccc(O)c1C#N

>  <ref_url>  (107) 
None

$$$$
TVPXJHJPEUDDCF-SECBINFHSA-N
     RDKit          3D

 21 23  0  0  0  0  0  0  0  0999 V2000
   15.4712    6.1899   14.4415 C   0  0  0  0  0  0  0  0  0  0  0  0
   14.1520    6.9612   14.5028 C   0  0  2  0  0  0  0  0  0  0  0  0
   12.9047    6.2707   13.9777 C   0  0  0  0  0  0  0  0  0  0  0  0
   11.6355    6.7904   13.7956 C   0  0  0  0  0  0  0  0  0  0  0  0
   10.7286    5.8711   13.2226 C   0  0  0  0  0  0  0  0  0  0  0  0
   11.3134    4.6468   13.0580 C   0  0  0  0  0  0  0  0  0  0  0  0
   12.9381    4.6349   13.5370 S   0  0  0  0  0  0  0  0  0  0  0  0
   14.3574    8.3554   14.0323 N   0  0  0  0  0  0  0  0  0  0  0  0
   13.6862    9.2942   14.8906 C   0  0  0  0  0  0  0  0  0  0  0  0
   14.5769    8.7143   12.6986 C   0  0  0  0  0  0  0  0  0  0  0  0
   14.5969    7.7397   11.6788 C   0  0  0  0  0  0  0  0  0  0  0  0
   14.6346    8.0385   10.3251 C   0  0  0  0  0  0  0  0  0  0  0  0
   14.5222    7.0263    9.4679 F   0  0  0  0  0  0  0  0  0  0  0  0
   14.7086    9.3291    9.8530 C   0  0  0  0  0  0  0  0  0  0  0  0
   14.7092   10.3410   10.8095 C   0  0  0  0  0  0  0  0  0  0  0  0
   14.6603   11.6862   10.5691 N   0  0  0  0  0  0  0  0  0  0  0  0
   14.6050   12.2325   11.7480 C   0  0  0  0  0  0  0  0  0  0  0  0
   14.4876   13.5404   12.0128 N   0  0  0  0  0  0  0  0  0  0  0  0
   14.7862   11.3092   12.7464 N   0  0  0  0  0  0  0  0  0  0  0  0
   15.1962   11.6683   14.0839 C   0  0  0  0  0  0  0  0  0  0  0  0
   14.6927   10.0443   12.1861 C   0  0  0  0  0  0  0  0  0  0  0  0
  2  1  1  6
  2  3  1  0
  3  4  2  0
  4  5  1  0
  5  6  2  0
  6  7  1  0
  2  8  1  0
  8  9  1  0
  8 10  1  0
 10 11  2  0
 11 12  1  0
 12 13  1  0
 12 14  2  0
 14 15  1  0
 15 16  1  0
 16 17  2  0
 17 18  1  0
 17 19  1  0
 19 20  1  0
 19 21  1  0
  7  3  1  0
 21 10  1  0
 21 15  2  0
M  END
>  <HIPPO ID>  (108) 
73949

>  <alias>  (108) 
None

>  <ref_mols>  (108) 
c0892a,c1203a

>  <submitter_email>  (108) 
None

>  <ref_pdb>  (108) 
c1454a

>  <inchikey>  (108) 
TVPXJHJPEUDDCF-SECBINFHSA-N

>  <generation_date>  (108) 
None

>  <original ID>  (108) 
TVPXJHJPEUDDCF-SECBINFHSA-N

>  <tags>  (108) 
[]

>  <exports>  (108) 
nan

>  <method>  (108) 
None

>  <submitter_name>  (108) 
None

>  <original SMILES>  (108) 
C[C@H](c1cccs1)N(C)c1cc(F)cc2nc(N)n(C)c12

>  <ref_url>  (108) 
None

$$$$
TVPXJHJPEUDDCF-VIFPVBQESA-N
     RDKit          3D

 21 23  0  0  0  0  0  0  0  0999 V2000
   14.6089    6.6316   15.8266 C   0  0  0  0  0  0  0  0  0  0  0  0
   14.2491    6.9167   14.3564 C   0  0  1  0  0  0  0  0  0  0  0  0
   12.8644    6.3691   14.0063 C   0  0  0  0  0  0  0  0  0  0  0  0
   12.5620    5.3500   13.1175 C   0  0  0  0  0  0  0  0  0  0  0  0
   11.1623    5.1131   13.0028 C   0  0  0  0  0  0  0  0  0  0  0  0
   10.4284    5.9417   13.8156 C   0  0  0  0  0  0  0  0  0  0  0  0
   11.4241    6.9911   14.7127 S   0  0  0  0  0  0  0  0  0  0  0  0
   14.4991    8.3485   14.0167 N   0  0  0  0  0  0  0  0  0  0  0  0
   13.9016    9.2897   14.9351 C   0  0  0  0  0  0  0  0  0  0  0  0
   14.6515    8.7501   12.6758 C   0  0  0  0  0  0  0  0  0  0  0  0
   14.6900    7.7833   11.6450 C   0  0  0  0  0  0  0  0  0  0  0  0
   14.6649    8.0890   10.2945 C   0  0  0  0  0  0  0  0  0  0  0  0
   14.5540    7.0767    9.4384 F   0  0  0  0  0  0  0  0  0  0  0  0
   14.6866    9.3813    9.8293 C   0  0  0  0  0  0  0  0  0  0  0  0
   14.6914   10.3872   10.7918 C   0  0  0  0  0  0  0  0  0  0  0  0
   14.6209   11.7301   10.5493 N   0  0  0  0  0  0  0  0  0  0  0  0
   14.5769   12.2740   11.7285 C   0  0  0  0  0  0  0  0  0  0  0  0
   14.4537   13.5797   11.9957 N   0  0  0  0  0  0  0  0  0  0  0  0
   14.7750   11.3552   12.7279 N   0  0  0  0  0  0  0  0  0  0  0  0
   15.1950   11.7381   14.0554 C   0  0  0  0  0  0  0  0  0  0  0  0
   14.7090   10.0874   12.1701 C   0  0  0  0  0  0  0  0  0  0  0  0
  2  1  1  1
  2  3  1  0
  3  4  2  0
  4  5  1  0
  5  6  2  0
  6  7  1  0
  2  8  1  0
  8  9  1  0
  8 10  1  0
 10 11  2  0
 11 12  1  0
 12 13  1  0
 12 14  2  0
 14 15  1  0
 15 16  1  0
 16 17  2  0
 17 18  1  0
 17 19  1  0
 19 20  1  0
 19 21  1  0
  7  3  1  0
 21 10  1  0
 21 15  2  0
M  END
>  <HIPPO ID>  (109) 
73950

>  <alias>  (109) 
None

>  <ref_mols>  (109) 
c0892a,c1203a

>  <submitter_email>  (109) 
None

>  <ref_pdb>  (109) 
c1454a

>  <inchikey>  (109) 
TVPXJHJPEUDDCF-VIFPVBQESA-N

>  <generation_date>  (109) 
None

>  <original ID>  (109) 
TVPXJHJPEUDDCF-VIFPVBQESA-N

>  <tags>  (109) 
[]

>  <exports>  (109) 
nan

>  <method>  (109) 
None

>  <submitter_name>  (109) 
None

>  <original SMILES>  (109) 
C[C@@H](c1cccs1)N(C)c1cc(F)cc2nc(N)n(C)c12

>  <ref_url>  (109) 
None

$$$$
GNZIIRHFSRJEJV-UHFFFAOYSA-N
     RDKit          3D

 17 18  0  0  0  0  0  0  0  0999 V2000
   16.9453    2.4858   13.9662 C   0  0  0  0  0  0  0  0  0  0  0  0
   16.6271    3.0267   15.3576 C   0  0  0  0  0  0  0  0  0  0  0  0
   15.1893    3.5530   15.3364 C   0  0  0  0  0  0  0  0  0  0  0  0
   17.5403    4.2661   15.6201 C   0  0  0  0  0  0  0  0  0  0  0  0
   18.9764    3.9613   15.6897 N   0  0  0  0  0  0  0  0  0  0  0  0
   19.2220    2.6755   16.3661 C   0  0  0  0  0  0  0  0  0  0  0  0
   18.0524    2.1681   17.2346 C   0  0  0  0  0  0  0  0  0  0  0  0
   16.8286    2.0079   16.4457 N   0  0  0  0  0  0  0  0  0  0  0  0
   16.1747    0.7747   16.4302 C   0  0  0  0  0  0  0  0  0  0  0  0
   15.6242    0.2969   15.4511 O   0  0  0  0  0  0  0  0  0  0  0  0
   16.1710   -0.0586   17.6501 C   0  0  0  0  0  0  0  0  0  0  0  0
   16.8716   -1.2725   17.6421 C   0  0  0  0  0  0  0  0  0  0  0  0
   16.8373   -2.1031   18.7622 C   0  0  0  0  0  0  0  0  0  0  0  0
   16.0862   -1.7277   19.8750 C   0  0  0  0  0  0  0  0  0  0  0  0
   15.3664   -0.5342   19.8552 C   0  0  0  0  0  0  0  0  0  0  0  0
   14.6314   -0.1997   20.9259 F   0  0  0  0  0  0  0  0  0  0  0  0
   15.4011    0.3121   18.7525 C   0  0  0  0  0  0  0  0  0  0  0  0
  1  2  1  0
  2  3  1  0
  2  4  1  0
  4  5  1  0
  5  6  1  0
  6  7  1  0
  7  8  1  0
  8  9  1  0
  9 10  2  0
  9 11  1  0
 11 12  2  0
 12 13  1  0
 13 14  2  0
 14 15  1  0
 15 16  1  0
 15 17  2  0
  8  2  1  0
 17 11  1  0
M  END
>  <HIPPO ID>  (110) 
78111

>  <alias>  (110) 
None

>  <ref_mols>  (110) 
c0398a,c0585a

>  <submitter_email>  (110) 
None

>  <ref_pdb>  (110) 
c0300a

>  <inchikey>  (110) 
GNZIIRHFSRJEJV-UHFFFAOYSA-N

>  <generation_date>  (110) 
None

>  <original ID>  (110) 
GNZIIRHFSRJEJV-UHFFFAOYSA-N

>  <tags>  (110) 
[]

>  <exports>  (110) 
['/opt/xchem-fragalysis-2/maxwin/CHIKV_HIPPO/hippo_prod/CHIKV_prod11_recipes/Recipe_1G8PPKY_poses.sdf']

>  <method>  (110) 
None

>  <submitter_name>  (110) 
None

>  <original SMILES>  (110) 
CC1(C)CNCCN1C(=O)c1cccc(F)c1

>  <ref_url>  (110) 
None

$$$$
ZQAYAOQRAIYTQV-SSDOTTSWSA-N
     RDKit          3D

 18 19  0  0  0  0  0  0  0  0999 V2000
   16.2125    2.4524   14.1116 C   0  0  0  0  0  0  0  0  0  0  0  0
   16.3242    2.7537   15.6025 C   0  0  2  0  0  0  0  0  0  0  0  0
   17.0961    4.0766   15.8010 C   0  0  0  0  0  0  0  0  0  0  0  0
   18.5304    3.9440   15.4812 N   0  0  0  0  0  0  0  0  0  0  0  0
   19.0971    2.9178   16.3787 C   0  0  0  0  0  0  0  0  0  0  0  0
   18.3697    1.5618   16.3170 C   0  0  0  0  0  0  0  0  0  0  0  0
   16.9140    1.6731   16.4148 N   0  0  0  0  0  0  0  0  0  0  0  0
   16.2104    0.4695   16.4888 C   0  0  0  0  0  0  0  0  0  0  0  0
   15.5473   -0.0337   15.5961 O   0  0  0  0  0  0  0  0  0  0  0  0
   16.2133   -0.2395   17.7708 C   0  0  0  0  0  0  0  0  0  0  0  0
   17.1439   -1.2711   17.9628 C   0  0  0  0  0  0  0  0  0  0  0  0
   17.1175   -2.0052   19.1440 C   0  0  0  0  0  0  0  0  0  0  0  0
   16.1807   -1.6833   20.1194 C   0  0  0  0  0  0  0  0  0  0  0  0
   16.1915   -2.3580   21.2754 F   0  0  0  0  0  0  0  0  0  0  0  0
   15.2441   -0.6742   19.9094 C   0  0  0  0  0  0  0  0  0  0  0  0
   14.3788   -0.3589   20.8862 F   0  0  0  0  0  0  0  0  0  0  0  0
   15.1788    0.0027   18.6905 C   0  0  0  0  0  0  0  0  0  0  0  0
   14.1929    1.0055   18.4795 N   0  0  0  0  0  0  0  0  0  0  0  0
  2  1  1  6
  2  3  1  0
  3  4  1  0
  4  5  1  0
  5  6  1  0
  6  7  1  0
  7  8  1  0
  8  9  2  0
  8 10  1  0
 10 11  2  0
 11 12  1  0
 12 13  2  0
 13 14  1  0
 13 15  1  0
 15 16  1  0
 15 17  2  0
 17 18  1  0
  7  2  1  0
 17 10  1  0
M  END
>  <HIPPO ID>  (111) 
78817

>  <alias>  (111) 
None

>  <ref_mols>  (111) 
c0398a,c0585a

>  <submitter_email>  (111) 
None

>  <ref_pdb>  (111) 
c0300a

>  <inchikey>  (111) 
ZQAYAOQRAIYTQV-SSDOTTSWSA-N

>  <generation_date>  (111) 
None

>  <original ID>  (111) 
ZQAYAOQRAIYTQV-SSDOTTSWSA-N

>  <tags>  (111) 
[]

>  <exports>  (111) 
nan

>  <method>  (111) 
None

>  <submitter_name>  (111) 
None

>  <original SMILES>  (111) 
C[C@@H]1CNCCN1C(=O)c1ccc(F)c(F)c1N

>  <ref_url>  (111) 
None

$$$$
ZQAYAOQRAIYTQV-SSDOTTSWSA-N
     RDKit          3D

 18 19  0  0  0  0  0  0  0  0999 V2000
   16.2669    2.6802   13.9875 C   0  0  0  0  0  0  0  0  0  0  0  0
   16.5632    3.0144   15.4408 C   0  0  2  0  0  0  0  0  0  0  0  0
   17.6531    4.0842   15.6045 C   0  0  0  0  0  0  0  0  0  0  0  0
   19.0048    3.6607   15.2276 N   0  0  0  0  0  0  0  0  0  0  0  0
   19.2059    2.2140   15.3981 C   0  0  0  0  0  0  0  0  0  0  0  0
   18.2972    1.5292   16.4338 C   0  0  0  0  0  0  0  0  0  0  0  0
   16.8736    1.7905   16.2148 N   0  0  0  0  0  0  0  0  0  0  0  0
   15.8719    1.3613   17.0910 C   0  0  0  0  0  0  0  0  0  0  0  0
   14.8588    2.0438   17.2381 O   0  0  0  0  0  0  0  0  0  0  0  0
   15.9928    0.1663   17.9673 C   0  0  0  0  0  0  0  0  0  0  0  0
   16.6823   -0.9872   17.5670 C   0  0  0  0  0  0  0  0  0  0  0  0
   16.8369   -2.0594   18.4494 C   0  0  0  0  0  0  0  0  0  0  0  0
   16.2858   -1.9820   19.7213 C   0  0  0  0  0  0  0  0  0  0  0  0
   16.4941   -2.9772   20.5907 F   0  0  0  0  0  0  0  0  0  0  0  0
   15.5352   -0.8791   20.0949 C   0  0  0  0  0  0  0  0  0  0  0  0
   15.0275   -0.8005   21.3339 F   0  0  0  0  0  0  0  0  0  0  0  0
   15.3075    0.1727   19.2063 C   0  0  0  0  0  0  0  0  0  0  0  0
   14.5513    1.2909   19.6625 N   0  0  0  0  0  0  0  0  0  0  0  0
  2  1  1  6
  2  3  1  0
  3  4  1  0
  4  5  1  0
  5  6  1  0
  6  7  1  0
  7  8  1  0
  8  9  2  0
  8 10  1  0
 10 11  2  0
 11 12  1  0
 12 13  2  0
 13 14  1  0
 13 15  1  0
 15 16  1  0
 15 17  2  0
 17 18  1  0
  7  2  1  0
 17 10  1  0
M  END
>  <HIPPO ID>  (112) 
78818

>  <alias>  (112) 
None

>  <ref_mols>  (112) 
c0398a,c0585a

>  <submitter_email>  (112) 
None

>  <ref_pdb>  (112) 
c0300a

>  <inchikey>  (112) 
ZQAYAOQRAIYTQV-SSDOTTSWSA-N

>  <generation_date>  (112) 
None

>  <original ID>  (112) 
ZQAYAOQRAIYTQV-SSDOTTSWSA-N

>  <tags>  (112) 
[]

>  <exports>  (112) 
nan

>  <method>  (112) 
None

>  <submitter_name>  (112) 
None

>  <original SMILES>  (112) 
C[C@@H]1CNCCN1C(=O)c1ccc(F)c(F)c1N

>  <ref_url>  (112) 
None

$$$$
ZRWCJTBXAFNWCU-UHFFFAOYSA-N
     RDKit          3D

 19 20  0  0  0  0  0  0  0  0999 V2000
   15.9407    2.5972   14.2546 C   0  0  0  0  0  0  0  0  0  0  0  0
   16.6630    2.9218   15.5663 C   0  0  0  0  0  0  0  0  0  0  0  0
   15.7737    3.8137   16.4400 C   0  0  0  0  0  0  0  0  0  0  0  0
   17.9281    3.7572   15.1832 C   0  0  0  0  0  0  0  0  0  0  0  0
   19.0219    2.8883   14.7260 N   0  0  0  0  0  0  0  0  0  0  0  0
   19.4473    2.0153   15.8400 C   0  0  0  0  0  0  0  0  0  0  0  0
   18.3943    1.7835   16.9494 C   0  0  0  0  0  0  0  0  0  0  0  0
   17.0588    1.7157   16.3676 N   0  0  0  0  0  0  0  0  0  0  0  0
   16.2759    0.5701   16.4510 C   0  0  0  0  0  0  0  0  0  0  0  0
   15.5639    0.1382   15.5575 O   0  0  0  0  0  0  0  0  0  0  0  0
   16.2596   -0.2123   17.6956 C   0  0  0  0  0  0  0  0  0  0  0  0
   17.1602   -1.2788   17.8369 C   0  0  0  0  0  0  0  0  0  0  0  0
   17.1336   -2.0527   18.9942 C   0  0  0  0  0  0  0  0  0  0  0  0
   16.2198   -1.7439   19.9957 C   0  0  0  0  0  0  0  0  0  0  0  0
   16.2401   -2.4486   21.1336 F   0  0  0  0  0  0  0  0  0  0  0  0
   15.2999   -0.7129   19.8310 C   0  0  0  0  0  0  0  0  0  0  0  0
   14.4495   -0.4171   20.8272 F   0  0  0  0  0  0  0  0  0  0  0  0
   15.2384    0.0107   18.6376 C   0  0  0  0  0  0  0  0  0  0  0  0
   14.2674    1.0377   18.4783 N   0  0  0  0  0  0  0  0  0  0  0  0
  1  2  1  0
  2  3  1  0
  2  4  1  0
  4  5  1  0
  5  6  1  0
  6  7  1  0
  7  8  1  0
  8  9  1  0
  9 10  2  0
  9 11  1  0
 11 12  2  0
 12 13  1  0
 13 14  2  0
 14 15  1  0
 14 16  1  0
 16 17  1  0
 16 18  2  0
 18 19  1  0
  8  2  1  0
 18 11  1  0
M  END
>  <HIPPO ID>  (113) 
79805

>  <alias>  (113) 
None

>  <ref_mols>  (113) 
c0398a,c0585a

>  <submitter_email>  (113) 
None

>  <ref_pdb>  (113) 
c0300a

>  <inchikey>  (113) 
ZRWCJTBXAFNWCU-UHFFFAOYSA-N

>  <generation_date>  (113) 
None

>  <original ID>  (113) 
ZRWCJTBXAFNWCU-UHFFFAOYSA-N

>  <tags>  (113) 
[]

>  <exports>  (113) 
nan

>  <method>  (113) 
None

>  <submitter_name>  (113) 
None

>  <original SMILES>  (113) 
CC1(C)CNCCN1C(=O)c1ccc(F)c(F)c1N

>  <ref_url>  (113) 
None

$$$$
NHKUMYVGYRRXDP-UHFFFAOYSA-N
     RDKit          3D

 21 23  0  0  0  0  0  0  0  0999 V2000
   16.9825   12.2316   12.5525 O   0  0  0  0  0  0  0  0  0  0  0  0
   17.5710   11.8330   11.5537 C   0  0  0  0  0  0  0  0  0  0  0  0
   17.0569   10.9648   10.6111 N   0  0  0  0  0  0  0  0  0  0  0  0
   16.0538   10.0085   10.8396 C   0  0  0  0  0  0  0  0  0  0  0  0
   15.5664    9.3079    9.7360 C   0  0  0  0  0  0  0  0  0  0  0  0
   14.6919    8.2410    9.9169 C   0  0  0  0  0  0  0  0  0  0  0  0
   14.3522    7.8304   11.2023 C   0  0  0  0  0  0  0  0  0  0  0  0
   14.8048    8.5514   12.3094 C   0  0  0  0  0  0  0  0  0  0  0  0
   14.3042    8.1186   13.9645 S   0  0  0  0  0  0  0  0  0  0  0  0
   15.6291    9.6587   12.1214 C   0  0  0  0  0  0  0  0  0  0  0  0
   18.9751   12.2785   11.3459 C   0  0  0  0  0  0  0  0  0  0  0  0
   19.4457   13.3866   12.0632 C   0  0  0  0  0  0  0  0  0  0  0  0
   20.7875   13.7583   11.9661 C   0  0  0  0  0  0  0  0  0  0  0  0
   21.4308   15.0876   12.8131 Cl  0  0  0  0  0  0  0  0  0  0  0  0
   21.6705   13.0564   11.1314 C   0  0  0  0  0  0  0  0  0  0  0  0
   22.9841   13.2850   10.7613 N   0  0  0  0  0  0  0  0  0  0  0  0
   23.2327   12.3581    9.8789 C   0  0  0  0  0  0  0  0  0  0  0  0
   24.3065   12.2955    9.1341 O   0  0  0  0  0  0  0  0  0  0  0  0
   22.2234   11.4733    9.7347 N   0  0  0  0  0  0  0  0  0  0  0  0
   21.1710   11.9304   10.4777 C   0  0  0  0  0  0  0  0  0  0  0  0
   19.8472   11.5026   10.5679 C   0  0  0  0  0  0  0  0  0  0  0  0
  1  2  2  0
  2  3  1  0
  3  4  1  0
  4  5  2  0
  5  6  1  0
  6  7  2  0
  7  8  1  0
  8  9  1  0
  8 10  2  0
  2 11  1  0
 11 12  2  0
 12 13  1  0
 13 14  1  0
 13 15  2  0
 15 16  1  0
 16 17  2  0
 17 18  1  0
 17 19  1  0
 19 20  1  0
 20 21  2  0
 10  4  1  0
 21 11  1  0
 20 15  1  0
M  END
>  <HIPPO ID>  (114) 
87993

>  <alias>  (114) 
None

>  <ref_mols>  (114) 
c0692a,c0894a

>  <submitter_email>  (114) 
None

>  <ref_pdb>  (114) 
c0270a

>  <inchikey>  (114) 
NHKUMYVGYRRXDP-UHFFFAOYSA-N

>  <generation_date>  (114) 
None

>  <original ID>  (114) 
NHKUMYVGYRRXDP-UHFFFAOYSA-N

>  <tags>  (114) 
[]

>  <exports>  (114) 
nan

>  <method>  (114) 
None

>  <submitter_name>  (114) 
None

>  <original SMILES>  (114) 
O=C(Nc1cccc(S)c1)c1cc(Cl)c2nc(O)[nH]c2c1

>  <ref_url>  (114) 
None

$$$$
JBOOZHVYUZIGGB-UHFFFAOYSA-N
     RDKit          3D

 21 23  0  0  0  0  0  0  0  0999 V2000
   17.0042   11.9930   12.5965 O   0  0  0  0  0  0  0  0  0  0  0  0
   17.5744   11.7024   11.5511 C   0  0  0  0  0  0  0  0  0  0  0  0
   17.0604   10.9069   10.5502 N   0  0  0  0  0  0  0  0  0  0  0  0
   16.0298    9.9660   10.6839 C   0  0  0  0  0  0  0  0  0  0  0  0
   15.4584    9.4766    9.5069 C   0  0  0  0  0  0  0  0  0  0  0  0
   14.5076    8.4646    9.5514 C   0  0  0  0  0  0  0  0  0  0  0  0
   14.1898    7.8934   10.7694 C   0  0  0  0  0  0  0  0  0  0  0  0
   13.2500    6.9409   10.8204 F   0  0  0  0  0  0  0  0  0  0  0  0
   14.7499    8.3669   11.9515 C   0  0  0  0  0  0  0  0  0  0  0  0
   15.6406    9.4369   11.9138 C   0  0  0  0  0  0  0  0  0  0  0  0
   18.9582   12.2077   11.3357 C   0  0  0  0  0  0  0  0  0  0  0  0
   19.3907   13.3269   12.0568 C   0  0  0  0  0  0  0  0  0  0  0  0
   20.7207   13.7381   11.9613 C   0  0  0  0  0  0  0  0  0  0  0  0
   21.3242   15.0818   12.8156 Cl  0  0  0  0  0  0  0  0  0  0  0  0
   21.6284   13.0586   11.1339 C   0  0  0  0  0  0  0  0  0  0  0  0
   22.9337   13.3200   10.7794 N   0  0  0  0  0  0  0  0  0  0  0  0
   23.2525   12.3878    9.9207 C   0  0  0  0  0  0  0  0  0  0  0  0
   24.3740   12.3718    9.2327 O   0  0  0  0  0  0  0  0  0  0  0  0
   22.2532   11.4844    9.7524 N   0  0  0  0  0  0  0  0  0  0  0  0
   21.1722   11.9195   10.4756 C   0  0  0  0  0  0  0  0  0  0  0  0
   19.8552   11.4635   10.5508 C   0  0  0  0  0  0  0  0  0  0  0  0
  1  2  2  0
  2  3  1  0
  3  4  1  0
  4  5  2  0
  5  6  1  0
  6  7  2  0
  7  8  1  0
  7  9  1  0
  9 10  2  0
  2 11  1  0
 11 12  2  0
 12 13  1  0
 13 14  1  0
 13 15  2  0
 15 16  1  0
 16 17  2  0
 17 18  1  0
 17 19  1  0
 19 20  1  0
 20 21  2  0
 10  4  1  0
 21 11  1  0
 20 15  1  0
M  END
>  <HIPPO ID>  (115) 
88068

>  <alias>  (115) 
None

>  <ref_mols>  (115) 
c0692a,c0894a

>  <submitter_email>  (115) 
None

>  <ref_pdb>  (115) 
c0270a

>  <inchikey>  (115) 
JBOOZHVYUZIGGB-UHFFFAOYSA-N

>  <generation_date>  (115) 
None

>  <original ID>  (115) 
JBOOZHVYUZIGGB-UHFFFAOYSA-N

>  <tags>  (115) 
[]

>  <exports>  (115) 
nan

>  <method>  (115) 
None

>  <submitter_name>  (115) 
None

>  <original SMILES>  (115) 
O=C(Nc1ccc(F)cc1)c1cc(Cl)c2nc(O)[nH]c2c1

>  <ref_url>  (115) 
None

$$$$
PZHPRHSASCTKLS-UHFFFAOYSA-N
     RDKit          3D

 22 24  0  0  0  0  0  0  0  0999 V2000
   16.0330   10.2979   13.8159 N   0  0  0  0  0  0  0  0  0  0  0  0
   15.5232    9.6161   12.6984 C   0  0  0  0  0  0  0  0  0  0  0  0
   14.8446    8.4065   12.9421 C   0  0  0  0  0  0  0  0  0  0  0  0
   14.4034    7.5793   11.9071 C   0  0  0  0  0  0  0  0  0  0  0  0
   14.6213    7.9612   10.5993 C   0  0  0  0  0  0  0  0  0  0  0  0
   15.3482    9.1218   10.3593 C   0  0  0  0  0  0  0  0  0  0  0  0
   15.5590    9.5852    8.7506 Cl  0  0  0  0  0  0  0  0  0  0  0  0
   15.8767    9.9286   11.3772 C   0  0  0  0  0  0  0  0  0  0  0  0
   16.8293   10.9166   10.9798 N   0  0  0  0  0  0  0  0  0  0  0  0
   17.3576   11.9335   11.7375 C   0  0  0  0  0  0  0  0  0  0  0  0
   16.7619   12.5005   12.6488 O   0  0  0  0  0  0  0  0  0  0  0  0
   18.7656   12.3345   11.4495 C   0  0  0  0  0  0  0  0  0  0  0  0
   19.2900   13.4500   12.1215 C   0  0  0  0  0  0  0  0  0  0  0  0
   20.6412   13.7771   11.9911 C   0  0  0  0  0  0  0  0  0  0  0  0
   21.3453   15.1034   12.7934 Cl  0  0  0  0  0  0  0  0  0  0  0  0
   21.4866   13.0197   11.1688 C   0  0  0  0  0  0  0  0  0  0  0  0
   22.8035   13.1889   10.7791 N   0  0  0  0  0  0  0  0  0  0  0  0
   23.0107   12.2227    9.9289 C   0  0  0  0  0  0  0  0  0  0  0  0
   24.0711   12.1002    9.1721 O   0  0  0  0  0  0  0  0  0  0  0  0
   21.9693   11.3674    9.8337 N   0  0  0  0  0  0  0  0  0  0  0  0
   20.9360   11.8952   10.5558 C   0  0  0  0  0  0  0  0  0  0  0  0
   19.5961   11.5192   10.6651 C   0  0  0  0  0  0  0  0  0  0  0  0
  1  2  1  0
  2  3  2  0
  3  4  1  0
  4  5  2  0
  5  6  1  0
  6  7  1  0
  6  8  2  0
  8  9  1  0
  9 10  1  0
 10 11  2  0
 10 12  1  0
 12 13  2  0
 13 14  1  0
 14 15  1  0
 14 16  2  0
 16 17  1  0
 17 18  2  0
 18 19  1  0
 18 20  1  0
 20 21  1  0
 21 22  2  0
  8  2  1  0
 22 12  1  0
 21 16  1  0
M  END
>  <HIPPO ID>  (116) 
88749

>  <alias>  (116) 
None

>  <ref_mols>  (116) 
c0692a,c0894a

>  <submitter_email>  (116) 
None

>  <ref_pdb>  (116) 
c0270a

>  <inchikey>  (116) 
PZHPRHSASCTKLS-UHFFFAOYSA-N

>  <generation_date>  (116) 
None

>  <original ID>  (116) 
PZHPRHSASCTKLS-UHFFFAOYSA-N

>  <tags>  (116) 
[]

>  <exports>  (116) 
nan

>  <method>  (116) 
None

>  <submitter_name>  (116) 
None

>  <original SMILES>  (116) 
Nc1cccc(Cl)c1NC(=O)c1cc(Cl)c2nc(O)[nH]c2c1

>  <ref_url>  (116) 
None

$$$$
BGFYXDWYHAVWEQ-UHFFFAOYSA-N
     RDKit          3D

 22 24  0  0  0  0  0  0  0  0999 V2000
   16.0308    9.9278   13.2272 N   0  0  0  0  0  0  0  0  0  0  0  0
   15.5368    9.5172   11.9733 C   0  0  0  0  0  0  0  0  0  0  0  0
   14.7068    8.3922   11.9466 C   0  0  0  0  0  0  0  0  0  0  0  0
   14.1977    7.9118   10.7447 C   0  0  0  0  0  0  0  0  0  0  0  0
   13.2733    6.9431   10.7622 F   0  0  0  0  0  0  0  0  0  0  0  0
   14.5476    8.4914    9.5448 C   0  0  0  0  0  0  0  0  0  0  0  0
   15.5021    9.4982    9.5427 C   0  0  0  0  0  0  0  0  0  0  0  0
   16.0227   10.0059   10.7432 C   0  0  0  0  0  0  0  0  0  0  0  0
   17.0866   10.9212   10.5905 N   0  0  0  0  0  0  0  0  0  0  0  0
   17.5783   11.8094   11.5189 C   0  0  0  0  0  0  0  0  0  0  0  0
   16.9504   12.2490   12.4779 O   0  0  0  0  0  0  0  0  0  0  0  0
   18.9878   12.2542   11.3295 C   0  0  0  0  0  0  0  0  0  0  0  0
   19.4369   13.3716   12.0448 C   0  0  0  0  0  0  0  0  0  0  0  0
   20.7731   13.7606   11.9557 C   0  0  0  0  0  0  0  0  0  0  0  0
   21.3904   15.1013   12.8043 Cl  0  0  0  0  0  0  0  0  0  0  0  0
   21.6719   13.0657   11.1327 C   0  0  0  0  0  0  0  0  0  0  0  0
   22.9795   13.3120   10.7766 N   0  0  0  0  0  0  0  0  0  0  0  0
   23.2879   12.3725    9.9225 C   0  0  0  0  0  0  0  0  0  0  0  0
   24.4109   12.3417    9.2369 O   0  0  0  0  0  0  0  0  0  0  0  0
   22.2773   11.4808    9.7559 N   0  0  0  0  0  0  0  0  0  0  0  0
   21.2021   11.9286   10.4807 C   0  0  0  0  0  0  0  0  0  0  0  0
   19.8793   11.4870   10.5601 C   0  0  0  0  0  0  0  0  0  0  0  0
  1  2  1  0
  2  3  2  0
  3  4  1  0
  4  5  1  0
  4  6  2  0
  6  7  1  0
  7  8  2  0
  8  9  1  0
  9 10  1  0
 10 11  2  0
 10 12  1  0
 12 13  2  0
 13 14  1  0
 14 15  1  0
 14 16  2  0
 16 17  1  0
 17 18  2  0
 18 19  1  0
 18 20  1  0
 20 21  1  0
 21 22  2  0
  8  2  1  0
 22 12  1  0
 21 16  1  0
M  END
>  <HIPPO ID>  (117) 
88830

>  <alias>  (117) 
None

>  <ref_mols>  (117) 
c0692a,c0894a

>  <submitter_email>  (117) 
None

>  <ref_pdb>  (117) 
c0270a

>  <inchikey>  (117) 
BGFYXDWYHAVWEQ-UHFFFAOYSA-N

>  <generation_date>  (117) 
None

>  <original ID>  (117) 
BGFYXDWYHAVWEQ-UHFFFAOYSA-N

>  <tags>  (117) 
[]

>  <exports>  (117) 
nan

>  <method>  (117) 
None

>  <submitter_name>  (117) 
None

>  <original SMILES>  (117) 
Nc1cc(F)ccc1NC(=O)c1cc(Cl)c2nc(O)[nH]c2c1

>  <ref_url>  (117) 
None

$$$$
BGYUUXSHJSHVPE-UHFFFAOYSA-N
     RDKit          3D

 22 24  0  0  0  0  0  0  0  0999 V2000
   23.9287   13.7154   11.7354 C   0  0  0  0  0  0  0  0  0  0  0  0
   22.9102   13.0278   11.0131 N   0  0  0  0  0  0  0  0  0  0  0  0
   23.2049   12.1629    9.9480 C   0  0  0  0  0  0  0  0  0  0  0  0
   24.2356   12.0868    9.3126 O   0  0  0  0  0  0  0  0  0  0  0  0
   22.0623   11.4164    9.7204 N   0  0  0  0  0  0  0  0  0  0  0  0
   21.0506   11.8757   10.5386 C   0  0  0  0  0  0  0  0  0  0  0  0
   19.7417   11.4710   10.5416 C   0  0  0  0  0  0  0  0  0  0  0  0
   18.8685   12.1776   11.3663 C   0  0  0  0  0  0  0  0  0  0  0  0
   17.4784   11.6931   11.5547 C   0  0  0  0  0  0  0  0  0  0  0  0
   16.9051   11.9788   12.5995 O   0  0  0  0  0  0  0  0  0  0  0  0
   16.9684   10.9129   10.5416 N   0  0  0  0  0  0  0  0  0  0  0  0
   15.9583    9.9509   10.6692 C   0  0  0  0  0  0  0  0  0  0  0  0
   15.3845    9.4738    9.4891 C   0  0  0  0  0  0  0  0  0  0  0  0
   14.4500    8.4470    9.5260 C   0  0  0  0  0  0  0  0  0  0  0  0
   14.1527    7.8509   10.7377 C   0  0  0  0  0  0  0  0  0  0  0  0
   13.2188    6.8927   10.7840 F   0  0  0  0  0  0  0  0  0  0  0  0
   14.7212    8.3088   11.9221 C   0  0  0  0  0  0  0  0  0  0  0  0
   15.5951    9.3923   11.8940 C   0  0  0  0  0  0  0  0  0  0  0  0
   19.3440   13.2360   12.1770 C   0  0  0  0  0  0  0  0  0  0  0  0
   20.7011   13.5900   12.1834 C   0  0  0  0  0  0  0  0  0  0  0  0
   21.1999   14.8985   13.1725 Cl  0  0  0  0  0  0  0  0  0  0  0  0
   21.5505   12.9003   11.3423 C   0  0  0  0  0  0  0  0  0  0  0  0
  1  2  1  0
  2  3  1  0
  3  4  2  0
  3  5  1  0
  5  6  1  0
  6  7  2  0
  7  8  1  0
  8  9  1  0
  9 10  2  0
  9 11  1  0
 11 12  1  0
 12 13  2  0
 13 14  1  0
 14 15  2  0
 15 16  1  0
 15 17  1  0
 17 18  2  0
  8 19  2  0
 19 20  1  0
 20 21  1  0
 20 22  2  0
 22  2  1  0
 22  6  1  0
 18 12  1  0
M  END
>  <HIPPO ID>  (118) 
89105

>  <alias>  (118) 
None

>  <ref_mols>  (118) 
c0692a,c0894a

>  <submitter_email>  (118) 
None

>  <ref_pdb>  (118) 
c0270a

>  <inchikey>  (118) 
BGYUUXSHJSHVPE-UHFFFAOYSA-N

>  <generation_date>  (118) 
None

>  <original ID>  (118) 
BGYUUXSHJSHVPE-UHFFFAOYSA-N

>  <tags>  (118) 
[]

>  <exports>  (118) 
nan

>  <method>  (118) 
None

>  <submitter_name>  (118) 
None

>  <original SMILES>  (118) 
Cn1c(=O)[nH]c2cc(C(=O)Nc3ccc(F)cc3)cc(Cl)c21

>  <ref_url>  (118) 
None

$$$$
YQKAHPQQNDXXPI-UHFFFAOYSA-N
     RDKit          3D

 22 24  0  0  0  0  0  0  0  0999 V2000
   23.7413   13.6514   11.7332 C   0  0  0  0  0  0  0  0  0  0  0  0
   22.7076   12.9300   11.0675 N   0  0  0  0  0  0  0  0  0  0  0  0
   22.9741   11.9913   10.0628 C   0  0  0  0  0  0  0  0  0  0  0  0
   24.0053   11.8192    9.4550 O   0  0  0  0  0  0  0  0  0  0  0  0
   21.8092   11.2842    9.8537 N   0  0  0  0  0  0  0  0  0  0  0  0
   20.8160   11.8278   10.6293 C   0  0  0  0  0  0  0  0  0  0  0  0
   19.5047   11.4590   10.6304 C   0  0  0  0  0  0  0  0  0  0  0  0
   18.6561   12.2025   11.4432 C   0  0  0  0  0  0  0  0  0  0  0  0
   17.2773   11.7067   11.6380 C   0  0  0  0  0  0  0  0  0  0  0  0
   16.7359   11.9092   12.7162 O   0  0  0  0  0  0  0  0  0  0  0  0
   16.7599   11.0075   10.5743 N   0  0  0  0  0  0  0  0  0  0  0  0
   15.7881   10.0054   10.6212 C   0  0  0  0  0  0  0  0  0  0  0  0
   15.2314    9.6304    9.3988 C   0  0  0  0  0  0  0  0  0  0  0  0
   14.3669    8.5507    9.3218 C   0  0  0  0  0  0  0  0  0  0  0  0
   14.1239    7.8016   10.4594 C   0  0  0  0  0  0  0  0  0  0  0  0
   13.3164    6.7068   10.3877 O   0  0  0  0  0  0  0  0  0  0  0  0
   14.6535    8.1752   11.6907 C   0  0  0  0  0  0  0  0  0  0  0  0
   15.4607    9.3093   11.7817 C   0  0  0  0  0  0  0  0  0  0  0  0
   19.1492   13.2727   12.2263 C   0  0  0  0  0  0  0  0  0  0  0  0
   20.5133   13.6035   12.2125 C   0  0  0  0  0  0  0  0  0  0  0  0
   21.0556   14.9209   13.1659 Cl  0  0  0  0  0  0  0  0  0  0  0  0
   21.3441   12.8666   11.3944 C   0  0  0  0  0  0  0  0  0  0  0  0
  1  2  1  0
  2  3  1  0
  3  4  2  0
  3  5  1  0
  5  6  1  0
  6  7  2  0
  7  8  1  0
  8  9  1  0
  9 10  2  0
  9 11  1  0
 11 12  1  0
 12 13  2  0
 13 14  1  0
 14 15  2  0
 15 16  1  0
 15 17  1  0
 17 18  2  0
  8 19  2  0
 19 20  1  0
 20 21  1  0
 20 22  2  0
 22  2  1  0
 22  6  1  0
 18 12  1  0
M  END
>  <HIPPO ID>  (119) 
89114

>  <alias>  (119) 
None

>  <ref_mols>  (119) 
c0692a,c0894a

>  <submitter_email>  (119) 
None

>  <ref_pdb>  (119) 
c0270a

>  <inchikey>  (119) 
YQKAHPQQNDXXPI-UHFFFAOYSA-N

>  <generation_date>  (119) 
None

>  <original ID>  (119) 
YQKAHPQQNDXXPI-UHFFFAOYSA-N

>  <tags>  (119) 
[]

>  <exports>  (119) 
nan

>  <method>  (119) 
None

>  <submitter_name>  (119) 
None

>  <original SMILES>  (119) 
Cn1c(=O)[nH]c2cc(C(=O)Nc3ccc(O)cc3)cc(Cl)c21

>  <ref_url>  (119) 
None

$$$$
RUDRTMGIHZQBJM-UHFFFAOYSA-N
     RDKit          3D

 22 24  0  0  0  0  0  0  0  0999 V2000
   17.1412   12.4166   12.6989 O   0  0  0  0  0  0  0  0  0  0  0  0
   17.7247   12.0262   11.6930 C   0  0  0  0  0  0  0  0  0  0  0  0
   17.1846   11.1676   10.7786 N   0  0  0  0  0  0  0  0  0  0  0  0
   16.1700   10.2327   11.0073 C   0  0  0  0  0  0  0  0  0  0  0  0
   15.5856    9.7252    9.8625 C   0  0  0  0  0  0  0  0  0  0  0  0
   14.6506    8.7197    9.9796 C   0  0  0  0  0  0  0  0  0  0  0  0
   13.5046    8.4823    8.5467 Br  0  0  0  0  0  0  0  0  0  0  0  0
   14.4222    8.0633   11.1782 C   0  0  0  0  0  0  0  0  0  0  0  0
   14.9762    8.5915   12.3337 C   0  0  0  0  0  0  0  0  0  0  0  0
   15.7825    9.7216   12.2522 C   0  0  0  0  0  0  0  0  0  0  0  0
   16.1837   10.2313   13.4490 O   0  0  0  0  0  0  0  0  0  0  0  0
   19.1222   12.4435   11.4395 C   0  0  0  0  0  0  0  0  0  0  0  0
   19.6135   13.5456   12.1421 C   0  0  0  0  0  0  0  0  0  0  0  0
   20.9580   13.8789   12.0295 C   0  0  0  0  0  0  0  0  0  0  0  0
   21.6406   15.1827   12.8830 Cl  0  0  0  0  0  0  0  0  0  0  0  0
   21.8171   13.1414   11.2014 C   0  0  0  0  0  0  0  0  0  0  0  0
   23.1396   13.3086   10.8718 N   0  0  0  0  0  0  0  0  0  0  0  0
   23.4124   12.3395   10.0404 C   0  0  0  0  0  0  0  0  0  0  0  0
   24.5802   12.2006    9.4589 O   0  0  0  0  0  0  0  0  0  0  0  0
   22.3447   11.5327    9.8152 N   0  0  0  0  0  0  0  0  0  0  0  0
   21.2940   12.0318   10.5407 C   0  0  0  0  0  0  0  0  0  0  0  0
   19.9610   11.6414   10.6420 C   0  0  0  0  0  0  0  0  0  0  0  0
  1  2  2  0
  2  3  1  0
  3  4  1  0
  4  5  2  0
  5  6  1  0
  6  7  1  0
  6  8  2  0
  8  9  1  0
  9 10  2  0
 10 11  1  0
  2 12  1  0
 12 13  2  0
 13 14  1  0
 14 15  1  0
 14 16  2  0
 16 17  1  0
 17 18  2  0
 18 19  1  0
 18 20  1  0
 20 21  1  0
 21 22  2  0
 10  4  1  0
 22 12  1  0
 21 16  1  0
M  END
>  <HIPPO ID>  (120) 
90146

>  <alias>  (120) 
None

>  <ref_mols>  (120) 
c0692a,c0894a

>  <submitter_email>  (120) 
None

>  <ref_pdb>  (120) 
c0270a

>  <inchikey>  (120) 
RUDRTMGIHZQBJM-UHFFFAOYSA-N

>  <generation_date>  (120) 
None

>  <original ID>  (120) 
RUDRTMGIHZQBJM-UHFFFAOYSA-N

>  <tags>  (120) 
[]

>  <exports>  (120) 
nan

>  <method>  (120) 
None

>  <submitter_name>  (120) 
None

>  <original SMILES>  (120) 
O=C(Nc1cc(Br)ccc1O)c1cc(Cl)c2nc(O)[nH]c2c1

>  <ref_url>  (120) 
None

$$$$
PMIDBNXIWLGNST-UHFFFAOYSA-N
     RDKit          3D

 22 24  0  0  0  0  0  0  0  0999 V2000
   16.7543   12.3892   12.4044 O   0  0  0  0  0  0  0  0  0  0  0  0
   17.4270   11.8594   11.5305 C   0  0  0  0  0  0  0  0  0  0  0  0
   16.9682   10.9381   10.6181 N   0  0  0  0  0  0  0  0  0  0  0  0
   15.9111   10.0162   10.7651 C   0  0  0  0  0  0  0  0  0  0  0  0
   15.3308    9.5941    9.5629 C   0  0  0  0  0  0  0  0  0  0  0  0
   14.4347    8.5382    9.5452 C   0  0  0  0  0  0  0  0  0  0  0  0
   13.7570    8.2742    8.4004 O   0  0  0  0  0  0  0  0  0  0  0  0
   14.1856    7.7978   10.6826 C   0  0  0  0  0  0  0  0  0  0  0  0
   14.7029    8.2468   11.8951 C   0  0  0  0  0  0  0  0  0  0  0  0
   15.5040    9.3962   11.9565 C   0  0  0  0  0  0  0  0  0  0  0  0
   15.9667    9.8764   13.5443 Cl  0  0  0  0  0  0  0  0  0  0  0  0
   18.8503   12.2749   11.3757 C   0  0  0  0  0  0  0  0  0  0  0  0
   19.2983   13.4016   12.0800 C   0  0  0  0  0  0  0  0  0  0  0  0
   20.6311   13.7958   11.9800 C   0  0  0  0  0  0  0  0  0  0  0  0
   21.2509   15.1734   12.7688 Cl  0  0  0  0  0  0  0  0  0  0  0  0
   21.5241   13.0952   11.1581 C   0  0  0  0  0  0  0  0  0  0  0  0
   22.8137   13.3725   10.7645 N   0  0  0  0  0  0  0  0  0  0  0  0
   23.0911   12.4433    9.8938 C   0  0  0  0  0  0  0  0  0  0  0  0
   24.1274   12.4588    9.0946 O   0  0  0  0  0  0  0  0  0  0  0  0
   22.1343   11.4909    9.8086 N   0  0  0  0  0  0  0  0  0  0  0  0
   21.0603   11.9392   10.5320 C   0  0  0  0  0  0  0  0  0  0  0  0
   19.7420   11.4931   10.6205 C   0  0  0  0  0  0  0  0  0  0  0  0
  1  2  2  0
  2  3  1  0
  3  4  1  0
  4  5  2  0
  5  6  1  0
  6  7  1  0
  6  8  2  0
  8  9  1  0
  9 10  2  0
 10 11  1  0
  2 12  1  0
 12 13  2  0
 13 14  1  0
 14 15  1  0
 14 16  2  0
 16 17  1  0
 17 18  2  0
 18 19  1  0
 18 20  1  0
 20 21  1  0
 21 22  2  0
 10  4  1  0
 22 12  1  0
 21 16  1  0
M  END
>  <HIPPO ID>  (121) 
90147

>  <alias>  (121) 
None

>  <ref_mols>  (121) 
c0692a,c0894a

>  <submitter_email>  (121) 
None

>  <ref_pdb>  (121) 
c0270a

>  <inchikey>  (121) 
PMIDBNXIWLGNST-UHFFFAOYSA-N

>  <generation_date>  (121) 
None

>  <original ID>  (121) 
PMIDBNXIWLGNST-UHFFFAOYSA-N

>  <tags>  (121) 
[]

>  <exports>  (121) 
nan

>  <method>  (121) 
None

>  <submitter_name>  (121) 
None

>  <original SMILES>  (121) 
O=C(Nc1cc(O)ccc1Cl)c1cc(Cl)c2nc(O)[nH]c2c1

>  <ref_url>  (121) 
None

$$$$
WQVZSPXXOZQHLQ-UHFFFAOYSA-N
     RDKit          3D

 22 24  0  0  0  0  0  0  0  0999 V2000
   16.6067   12.4445   12.4131 O   0  0  0  0  0  0  0  0  0  0  0  0
   17.2810   11.9006   11.5509 C   0  0  0  0  0  0  0  0  0  0  0  0
   16.8295   10.9763   10.6398 N   0  0  0  0  0  0  0  0  0  0  0  0
   15.8072   10.0196   10.7795 C   0  0  0  0  0  0  0  0  0  0  0  0
   15.2500    9.5961    9.5668 C   0  0  0  0  0  0  0  0  0  0  0  0
   14.3890    8.5136    9.5258 C   0  0  0  0  0  0  0  0  0  0  0  0
   13.7245    8.2538    8.3729 O   0  0  0  0  0  0  0  0  0  0  0  0
   14.1612    7.7441   10.6476 C   0  0  0  0  0  0  0  0  0  0  0  0
   14.6600    8.1875   11.8699 C   0  0  0  0  0  0  0  0  0  0  0  0
   15.4156    9.3676   11.9576 C   0  0  0  0  0  0  0  0  0  0  0  0
   15.8356    9.8968   13.7264 Br  0  0  0  0  0  0  0  0  0  0  0  0
   18.7084   12.2909   11.4065 C   0  0  0  0  0  0  0  0  0  0  0  0
   19.1870   13.4027   12.1131 C   0  0  0  0  0  0  0  0  0  0  0  0
   20.5386   13.7380   12.0405 C   0  0  0  0  0  0  0  0  0  0  0  0
   21.2048   15.0696   12.8658 Cl  0  0  0  0  0  0  0  0  0  0  0  0
   21.4168   12.9887   11.2460 C   0  0  0  0  0  0  0  0  0  0  0  0
   22.7358   13.1685   10.9045 N   0  0  0  0  0  0  0  0  0  0  0  0
   23.0028   12.2036   10.0665 C   0  0  0  0  0  0  0  0  0  0  0  0
   24.1139   12.1230    9.3799 O   0  0  0  0  0  0  0  0  0  0  0  0
   21.9677   11.3440    9.9187 N   0  0  0  0  0  0  0  0  0  0  0  0
   20.9080   11.8622   10.6073 C   0  0  0  0  0  0  0  0  0  0  0  0
   19.5751   11.4765   10.6614 C   0  0  0  0  0  0  0  0  0  0  0  0
  1  2  2  0
  2  3  1  0
  3  4  1  0
  4  5  2  0
  5  6  1  0
  6  7  1  0
  6  8  2  0
  8  9  1  0
  9 10  2  0
 10 11  1  0
  2 12  1  0
 12 13  2  0
 13 14  1  0
 14 15  1  0
 14 16  2  0
 16 17  1  0
 17 18  2  0
 18 19  1  0
 18 20  1  0
 20 21  1  0
 21 22  2  0
 10  4  1  0
 22 12  1  0
 21 16  1  0
M  END
>  <HIPPO ID>  (122) 
90266

>  <alias>  (122) 
None

>  <ref_mols>  (122) 
c0692a,c0894a

>  <submitter_email>  (122) 
None

>  <ref_pdb>  (122) 
c0270a

>  <inchikey>  (122) 
WQVZSPXXOZQHLQ-UHFFFAOYSA-N

>  <generation_date>  (122) 
None

>  <original ID>  (122) 
WQVZSPXXOZQHLQ-UHFFFAOYSA-N

>  <tags>  (122) 
[]

>  <exports>  (122) 
nan

>  <method>  (122) 
None

>  <submitter_name>  (122) 
None

>  <original SMILES>  (122) 
O=C(Nc1cc(O)ccc1Br)c1cc(Cl)c2nc(O)[nH]c2c1

>  <ref_url>  (122) 
None

$$$$
SDZYWMXNSIDARJ-UHFFFAOYSA-N
     RDKit          3D

 22 24  0  0  0  0  0  0  0  0999 V2000
   16.9148   12.2342   12.5580 O   0  0  0  0  0  0  0  0  0  0  0  0
   17.5176   11.8503   11.5601 C   0  0  0  0  0  0  0  0  0  0  0  0
   16.9870   11.0062   10.6130 N   0  0  0  0  0  0  0  0  0  0  0  0
   15.9720   10.0457   10.7981 C   0  0  0  0  0  0  0  0  0  0  0  0
   15.4646    9.4648    9.6319 C   0  0  0  0  0  0  0  0  0  0  0  0
   14.6126    8.3648    9.6946 C   0  0  0  0  0  0  0  0  0  0  0  0
   14.3380    7.7790   10.9218 C   0  0  0  0  0  0  0  0  0  0  0  0
   13.2339    6.0251   11.0084 I   0  0  0  0  0  0  0  0  0  0  0  0
   14.7921    8.3734   12.0948 C   0  0  0  0  0  0  0  0  0  0  0  0
   15.5562    9.5361   12.0330 C   0  0  0  0  0  0  0  0  0  0  0  0
   15.9042   10.0607   13.2428 O   0  0  0  0  0  0  0  0  0  0  0  0
   18.9240   12.2863   11.3607 C   0  0  0  0  0  0  0  0  0  0  0  0
   19.4006   13.3862   12.0863 C   0  0  0  0  0  0  0  0  0  0  0  0
   20.7478   13.7415   12.0021 C   0  0  0  0  0  0  0  0  0  0  0  0
   21.4018   15.0597   12.8586 Cl  0  0  0  0  0  0  0  0  0  0  0  0
   21.6299   13.0303   11.1745 C   0  0  0  0  0  0  0  0  0  0  0  0
   22.9545   13.2345   10.8322 N   0  0  0  0  0  0  0  0  0  0  0  0
   23.2007   12.3099    9.9475 C   0  0  0  0  0  0  0  0  0  0  0  0
   24.2988   12.2208    9.2431 O   0  0  0  0  0  0  0  0  0  0  0  0
   22.1725   11.4549    9.7654 N   0  0  0  0  0  0  0  0  0  0  0  0
   21.1198   11.9193   10.5032 C   0  0  0  0  0  0  0  0  0  0  0  0
   19.7904   11.5071   10.5796 C   0  0  0  0  0  0  0  0  0  0  0  0
  1  2  2  0
  2  3  1  0
  3  4  1  0
  4  5  2  0
  5  6  1  0
  6  7  2  0
  7  8  1  0
  7  9  1  0
  9 10  2  0
 10 11  1  0
  2 12  1  0
 12 13  2  0
 13 14  1  0
 14 15  1  0
 14 16  2  0
 16 17  1  0
 17 18  2  0
 18 19  1  0
 18 20  1  0
 20 21  1  0
 21 22  2  0
 10  4  1  0
 22 12  1  0
 21 16  1  0
M  END
>  <HIPPO ID>  (123) 
90271

>  <alias>  (123) 
None

>  <ref_mols>  (123) 
c0692a,c0894a

>  <submitter_email>  (123) 
None

>  <ref_pdb>  (123) 
c0270a

>  <inchikey>  (123) 
SDZYWMXNSIDARJ-UHFFFAOYSA-N

>  <generation_date>  (123) 
None

>  <original ID>  (123) 
SDZYWMXNSIDARJ-UHFFFAOYSA-N

>  <tags>  (123) 
[]

>  <exports>  (123) 
nan

>  <method>  (123) 
None

>  <submitter_name>  (123) 
None

>  <original SMILES>  (123) 
O=C(Nc1ccc(I)cc1O)c1cc(Cl)c2nc(O)[nH]c2c1

>  <ref_url>  (123) 
None

$$$$
MARNKIOGLJIUSW-UHFFFAOYSA-N
     RDKit          3D

 22 24  0  0  0  0  0  0  0  0999 V2000
   16.5567   12.6793   12.3206 O   0  0  0  0  0  0  0  0  0  0  0  0
   17.2468   12.0262   11.5533 C   0  0  0  0  0  0  0  0  0  0  0  0
   16.7972   11.0444   10.7039 N   0  0  0  0  0  0  0  0  0  0  0  0
   15.8210   10.0529   10.9035 C   0  0  0  0  0  0  0  0  0  0  0  0
   15.3891    9.4536    9.7069 C   0  0  0  0  0  0  0  0  0  0  0  0
   14.5793    8.3241    9.7098 C   0  0  0  0  0  0  0  0  0  0  0  0
   14.2824    7.7088   10.9102 C   0  0  0  0  0  0  0  0  0  0  0  0
   13.2062    5.9421   10.9433 I   0  0  0  0  0  0  0  0  0  0  0  0
   14.6696    8.3009   12.1080 C   0  0  0  0  0  0  0  0  0  0  0  0
   15.3736    9.5156   12.1191 C   0  0  0  0  0  0  0  0  0  0  0  0
   15.6473   10.2756   14.0481 I   0  0  0  0  0  0  0  0  0  0  0  0
   18.6919   12.3499   11.4351 C   0  0  0  0  0  0  0  0  0  0  0  0
   19.2180   13.4551   12.1200 C   0  0  0  0  0  0  0  0  0  0  0  0
   20.5815   13.7448   12.0264 C   0  0  0  0  0  0  0  0  0  0  0  0
   21.3000   15.0726   12.8119 Cl  0  0  0  0  0  0  0  0  0  0  0  0
   21.4222   12.9601   11.2244 C   0  0  0  0  0  0  0  0  0  0  0  0
   22.7378   13.1010   10.8232 N   0  0  0  0  0  0  0  0  0  0  0  0
   22.9087   12.1262    9.9751 C   0  0  0  0  0  0  0  0  0  0  0  0
   23.9148   11.9988    9.1589 O   0  0  0  0  0  0  0  0  0  0  0  0
   21.8720   11.2710    9.9199 N   0  0  0  0  0  0  0  0  0  0  0  0
   20.8585   11.8359   10.6273 C   0  0  0  0  0  0  0  0  0  0  0  0
   19.5222   11.4877   10.7102 C   0  0  0  0  0  0  0  0  0  0  0  0
  1  2  2  0
  2  3  1  0
  3  4  1  0
  4  5  2  0
  5  6  1  0
  6  7  2  0
  7  8  1  0
  7  9  1  0
  9 10  2  0
 10 11  1  0
  2 12  1  0
 12 13  2  0
 13 14  1  0
 14 15  1  0
 14 16  2  0
 16 17  1  0
 17 18  2  0
 18 19  1  0
 18 20  1  0
 20 21  1  0
 21 22  2  0
 10  4  1  0
 22 12  1  0
 21 16  1  0
M  END
>  <HIPPO ID>  (124) 
90306

>  <alias>  (124) 
None

>  <ref_mols>  (124) 
c0692a,c0894a

>  <submitter_email>  (124) 
None

>  <ref_pdb>  (124) 
c0270a

>  <inchikey>  (124) 
MARNKIOGLJIUSW-UHFFFAOYSA-N

>  <generation_date>  (124) 
None

>  <original ID>  (124) 
MARNKIOGLJIUSW-UHFFFAOYSA-N

>  <tags>  (124) 
[]

>  <exports>  (124) 
nan

>  <method>  (124) 
None

>  <submitter_name>  (124) 
None

>  <original SMILES>  (124) 
O=C(Nc1ccc(I)cc1I)c1cc(Cl)c2nc(O)[nH]c2c1

>  <ref_url>  (124) 
None

$$$$
HCCMYOFRHIDHPM-UHFFFAOYSA-N
     RDKit          3D

 23 25  0  0  0  0  0  0  0  0999 V2000
   23.9381   13.6612   11.7583 C   0  0  0  0  0  0  0  0  0  0  0  0
   22.9096   12.9526   11.0719 N   0  0  0  0  0  0  0  0  0  0  0  0
   23.1762   12.0660   10.0209 C   0  0  0  0  0  0  0  0  0  0  0  0
   24.2062   11.9451    9.3947 O   0  0  0  0  0  0  0  0  0  0  0  0
   22.0106   11.3600    9.7900 N   0  0  0  0  0  0  0  0  0  0  0  0
   21.0133   11.8675   10.5935 C   0  0  0  0  0  0  0  0  0  0  0  0
   19.6916   11.5169   10.5780 C   0  0  0  0  0  0  0  0  0  0  0  0
   18.8361   12.2867   11.3606 C   0  0  0  0  0  0  0  0  0  0  0  0
   17.3991   11.9428   11.4684 C   0  0  0  0  0  0  0  0  0  0  0  0
   16.7222   12.5239   12.3119 O   0  0  0  0  0  0  0  0  0  0  0  0
   16.9304   10.9790   10.6064 N   0  0  0  0  0  0  0  0  0  0  0  0
   15.9345   10.0153   10.8697 C   0  0  0  0  0  0  0  0  0  0  0  0
   15.4841    9.3054    9.7469 C   0  0  0  0  0  0  0  0  0  0  0  0
   14.6440    8.2074    9.8876 C   0  0  0  0  0  0  0  0  0  0  0  0
   14.3171    7.7511   11.1540 C   0  0  0  0  0  0  0  0  0  0  0  0
   14.7298    8.4739   12.2738 C   0  0  0  0  0  0  0  0  0  0  0  0
   14.2080    7.9293   13.8368 Cl  0  0  0  0  0  0  0  0  0  0  0  0
   15.4775    9.6606   12.1563 C   0  0  0  0  0  0  0  0  0  0  0  0
   15.9414   10.2967   13.3345 N   0  0  0  0  0  0  0  0  0  0  0  0
   19.3461   13.3323   12.1701 C   0  0  0  0  0  0  0  0  0  0  0  0
   20.7161   13.6213   12.2054 C   0  0  0  0  0  0  0  0  0  0  0  0
   21.2558   14.9191   13.1864 Cl  0  0  0  0  0  0  0  0  0  0  0  0
   21.5448   12.8834   11.3883 C   0  0  0  0  0  0  0  0  0  0  0  0
  1  2  1  0
  2  3  1  0
  3  4  2  0
  3  5  1  0
  5  6  1  0
  6  7  2  0
  7  8  1  0
  8  9  1  0
  9 10  2  0
  9 11  1  0
 11 12  1  0
 12 13  2  0
 13 14  1  0
 14 15  2  0
 15 16  1  0
 16 17  1  0
 16 18  2  0
 18 19  1  0
  8 20  2  0
 20 21  1  0
 21 22  1  0
 21 23  2  0
 23  2  1  0
 23  6  1  0
 18 12  1  0
M  END
>  <HIPPO ID>  (125) 
90703

>  <alias>  (125) 
None

>  <ref_mols>  (125) 
c0692a,c0894a

>  <submitter_email>  (125) 
None

>  <ref_pdb>  (125) 
c0270a

>  <inchikey>  (125) 
HCCMYOFRHIDHPM-UHFFFAOYSA-N

>  <generation_date>  (125) 
None

>  <original ID>  (125) 
HCCMYOFRHIDHPM-UHFFFAOYSA-N

>  <tags>  (125) 
[]

>  <exports>  (125) 
nan

>  <method>  (125) 
None

>  <submitter_name>  (125) 
None

>  <original SMILES>  (125) 
Cn1c(=O)[nH]c2cc(C(=O)Nc3cccc(Cl)c3N)cc(Cl)c21

>  <ref_url>  (125) 
None

$$$$
JLQBZMAYRDPPIW-UHFFFAOYSA-N
     RDKit          3D

 23 25  0  0  0  0  0  0  0  0999 V2000
   16.0694   10.2198   13.8872 N   0  0  0  0  0  0  0  0  0  0  0  0
   15.5423    9.5755   12.7605 C   0  0  0  0  0  0  0  0  0  0  0  0
   14.8910    8.3410   12.9578 C   0  0  0  0  0  0  0  0  0  0  0  0
   14.3940    7.5869   11.8910 C   0  0  0  0  0  0  0  0  0  0  0  0
   14.5121    8.0911   10.6157 C   0  0  0  0  0  0  0  0  0  0  0  0
   13.8856    7.4868    9.5953 F   0  0  0  0  0  0  0  0  0  0  0  0
   15.2222    9.2619   10.4156 C   0  0  0  0  0  0  0  0  0  0  0  0
   15.1656   10.0289    8.7404 Br  0  0  0  0  0  0  0  0  0  0  0  0
   15.8368    9.9701   11.4497 C   0  0  0  0  0  0  0  0  0  0  0  0
   16.7820   10.9673   11.0671 N   0  0  0  0  0  0  0  0  0  0  0  0
   17.3348   11.9558   11.8417 C   0  0  0  0  0  0  0  0  0  0  0  0
   16.7776   12.4810   12.8000 O   0  0  0  0  0  0  0  0  0  0  0  0
   18.7277   12.3674   11.5080 C   0  0  0  0  0  0  0  0  0  0  0  0
   19.2718   13.4800   12.1674 C   0  0  0  0  0  0  0  0  0  0  0  0
   20.6265   13.7848   12.0224 C   0  0  0  0  0  0  0  0  0  0  0  0
   21.3617   15.0983   12.8179 Cl  0  0  0  0  0  0  0  0  0  0  0  0
   21.4545   13.0035   11.2047 C   0  0  0  0  0  0  0  0  0  0  0  0
   22.7801   13.1281   10.8299 N   0  0  0  0  0  0  0  0  0  0  0  0
   22.9688   12.1437    9.9968 C   0  0  0  0  0  0  0  0  0  0  0  0
   24.0508   11.9570    9.2883 O   0  0  0  0  0  0  0  0  0  0  0  0
   21.8968   11.3320    9.8789 N   0  0  0  0  0  0  0  0  0  0  0  0
   20.8772   11.8922   10.5927 C   0  0  0  0  0  0  0  0  0  0  0  0
   19.5330   11.5425   10.7073 C   0  0  0  0  0  0  0  0  0  0  0  0
  1  2  1  0
  2  3  2  0
  3  4  1  0
  4  5  2  0
  5  6  1  0
  5  7  1  0
  7  8  1  0
  7  9  2  0
  9 10  1  0
 10 11  1  0
 11 12  2  0
 11 13  1  0
 13 14  2  0
 14 15  1  0
 15 16  1  0
 15 17  2  0
 17 18  1  0
 18 19  2  0
 19 20  1  0
 19 21  1  0
 21 22  1  0
 22 23  2  0
  9  2  1  0
 23 13  1  0
 22 17  1  0
M  END
>  <HIPPO ID>  (126) 
91015

>  <alias>  (126) 
None

>  <ref_mols>  (126) 
c0692a,c0894a

>  <submitter_email>  (126) 
None

>  <ref_pdb>  (126) 
c0270a

>  <inchikey>  (126) 
JLQBZMAYRDPPIW-UHFFFAOYSA-N

>  <generation_date>  (126) 
None

>  <original ID>  (126) 
JLQBZMAYRDPPIW-UHFFFAOYSA-N

>  <tags>  (126) 
[]

>  <exports>  (126) 
nan

>  <method>  (126) 
None

>  <submitter_name>  (126) 
None

>  <original SMILES>  (126) 
Nc1ccc(F)c(Br)c1NC(=O)c1cc(Cl)c2nc(O)[nH]c2c1

>  <ref_url>  (126) 
None

$$$$
JPJJEYVEOQERQG-UHFFFAOYSA-N
     RDKit          3D

 23 25  0  0  0  0  0  0  0  0999 V2000
   16.1491   10.2050   13.5211 N   0  0  0  0  0  0  0  0  0  0  0  0
   15.6516    9.7472   12.2916 C   0  0  0  0  0  0  0  0  0  0  0  0
   14.8893    8.5756   12.2975 C   0  0  0  0  0  0  0  0  0  0  0  0
   14.3499    8.0955   11.1158 C   0  0  0  0  0  0  0  0  0  0  0  0
   13.4497    7.1015   11.1596 F   0  0  0  0  0  0  0  0  0  0  0  0
   14.5963    8.7629    9.9342 C   0  0  0  0  0  0  0  0  0  0  0  0
   13.4847    8.5449    8.4749 Br  0  0  0  0  0  0  0  0  0  0  0  0
   15.5293    9.7694    9.8687 C   0  0  0  0  0  0  0  0  0  0  0  0
   16.0727   10.2604   11.0464 C   0  0  0  0  0  0  0  0  0  0  0  0
   17.0685   11.2209   10.8440 N   0  0  0  0  0  0  0  0  0  0  0  0
   17.5922   12.0952   11.7568 C   0  0  0  0  0  0  0  0  0  0  0  0
   17.0046   12.5393   12.7356 O   0  0  0  0  0  0  0  0  0  0  0  0
   19.0005   12.4771   11.5105 C   0  0  0  0  0  0  0  0  0  0  0  0
   19.5433   13.5682   12.1946 C   0  0  0  0  0  0  0  0  0  0  0  0
   20.8999   13.8552   12.0552 C   0  0  0  0  0  0  0  0  0  0  0  0
   21.6442   15.1488   12.8714 Cl  0  0  0  0  0  0  0  0  0  0  0  0
   21.7166   13.0828   11.2152 C   0  0  0  0  0  0  0  0  0  0  0  0
   23.0382   13.1990   10.8295 N   0  0  0  0  0  0  0  0  0  0  0  0
   23.2017   12.2276    9.9766 C   0  0  0  0  0  0  0  0  0  0  0  0
   24.2689   12.0234    9.2600 O   0  0  0  0  0  0  0  0  0  0  0  0
   22.1238   11.4347    9.8418 N   0  0  0  0  0  0  0  0  0  0  0  0
   21.1295   11.9858   10.5883 C   0  0  0  0  0  0  0  0  0  0  0  0
   19.7963   11.6382   10.7157 C   0  0  0  0  0  0  0  0  0  0  0  0
  1  2  1  0
  2  3  2  0
  3  4  1  0
  4  5  1  0
  4  6  2  0
  6  7  1  0
  6  8  1  0
  8  9  2  0
  9 10  1  0
 10 11  1  0
 11 12  2  0
 11 13  1  0
 13 14  2  0
 14 15  1  0
 15 16  1  0
 15 17  2  0
 17 18  1  0
 18 19  2  0
 19 20  1  0
 19 21  1  0
 21 22  1  0
 22 23  2  0
  9  2  1  0
 23 13  1  0
 22 17  1  0
M  END
>  <HIPPO ID>  (127) 
91035

>  <alias>  (127) 
None

>  <ref_mols>  (127) 
c0692a,c0894a

>  <submitter_email>  (127) 
None

>  <ref_pdb>  (127) 
c0270a

>  <inchikey>  (127) 
JPJJEYVEOQERQG-UHFFFAOYSA-N

>  <generation_date>  (127) 
None

>  <original ID>  (127) 
JPJJEYVEOQERQG-UHFFFAOYSA-N

>  <tags>  (127) 
[]

>  <exports>  (127) 
nan

>  <method>  (127) 
None

>  <submitter_name>  (127) 
None

>  <original SMILES>  (127) 
Nc1cc(F)c(Br)cc1NC(=O)c1cc(Cl)c2nc(O)[nH]c2c1

>  <ref_url>  (127) 
None

$$$$
OLRPHIJQJGEYPO-UHFFFAOYSA-N
     RDKit          3D

 23 25  0  0  0  0  0  0  0  0999 V2000
   15.6935   10.5008   13.5618 C   0  0  0  0  0  0  0  0  0  0  0  0
   15.4660    9.7178   12.3069 C   0  0  0  0  0  0  0  0  0  0  0  0
   14.6572    8.5797   12.4205 C   0  0  0  0  0  0  0  0  0  0  0  0
   14.0948    8.2835   13.6015 F   0  0  0  0  0  0  0  0  0  0  0  0
   14.3453    7.7630   11.3438 C   0  0  0  0  0  0  0  0  0  0  0  0
   14.7747    8.1289   10.0869 C   0  0  0  0  0  0  0  0  0  0  0  0
   15.5676    9.2622    9.9189 C   0  0  0  0  0  0  0  0  0  0  0  0
   16.0801    9.4858    8.6429 N   0  0  0  0  0  0  0  0  0  0  0  0
   15.9918   10.0159   11.0398 C   0  0  0  0  0  0  0  0  0  0  0  0
   17.0438   10.9248   10.7769 N   0  0  0  0  0  0  0  0  0  0  0  0
   17.4958   11.9736   11.5373 C   0  0  0  0  0  0  0  0  0  0  0  0
   16.8142   12.6379   12.3068 O   0  0  0  0  0  0  0  0  0  0  0  0
   18.9323   12.3401   11.3727 C   0  0  0  0  0  0  0  0  0  0  0  0
   19.4023   13.4670   12.0638 C   0  0  0  0  0  0  0  0  0  0  0  0
   20.7406   13.8365   11.9627 C   0  0  0  0  0  0  0  0  0  0  0  0
   21.3800   15.2090   12.7437 Cl  0  0  0  0  0  0  0  0  0  0  0  0
   21.6195   13.1155   11.1450 C   0  0  0  0  0  0  0  0  0  0  0  0
   22.9139   13.3661   10.7529 N   0  0  0  0  0  0  0  0  0  0  0  0
   23.1740   12.4306    9.8841 C   0  0  0  0  0  0  0  0  0  0  0  0
   24.2172   12.4182    9.0942 O   0  0  0  0  0  0  0  0  0  0  0  0
   22.1963   11.5005    9.7943 N   0  0  0  0  0  0  0  0  0  0  0  0
   21.1347   11.9643   10.5260 C   0  0  0  0  0  0  0  0  0  0  0  0
   19.8113   11.5347   10.6270 C   0  0  0  0  0  0  0  0  0  0  0  0
  1  2  1  0
  2  3  2  0
  3  4  1  0
  3  5  1  0
  5  6  2  0
  6  7  1  0
  7  8  1  0
  7  9  2  0
  9 10  1  0
 10 11  1  0
 11 12  2  0
 11 13  1  0
 13 14  2  0
 14 15  1  0
 15 16  1  0
 15 17  2  0
 17 18  1  0
 18 19  2  0
 19 20  1  0
 19 21  1  0
 21 22  1  0
 22 23  2  0
  9  2  1  0
 23 13  1  0
 22 17  1  0
M  END
>  <HIPPO ID>  (128) 
91103

>  <alias>  (128) 
None

>  <ref_mols>  (128) 
c0692a,c0894a

>  <submitter_email>  (128) 
None

>  <ref_pdb>  (128) 
c0270a

>  <inchikey>  (128) 
OLRPHIJQJGEYPO-UHFFFAOYSA-N

>  <generation_date>  (128) 
None

>  <original ID>  (128) 
OLRPHIJQJGEYPO-UHFFFAOYSA-N

>  <tags>  (128) 
[]

>  <exports>  (128) 
nan

>  <method>  (128) 
None

>  <submitter_name>  (128) 
None

>  <original SMILES>  (128) 
Cc1c(F)ccc(N)c1NC(=O)c1cc(Cl)c2nc(O)[nH]c2c1

>  <ref_url>  (128) 
None

$$$$
SXYVLUOFUZMZEW-UHFFFAOYSA-N
     RDKit          3D

 23 25  0  0  0  0  0  0  0  0999 V2000
   16.1827   10.0312   13.4080 N   0  0  0  0  0  0  0  0  0  0  0  0
   15.6548    9.6150   12.1746 C   0  0  0  0  0  0  0  0  0  0  0  0
   14.9250    8.4189   12.1581 C   0  0  0  0  0  0  0  0  0  0  0  0
   14.3741    7.9311   10.9740 C   0  0  0  0  0  0  0  0  0  0  0  0
   13.3082    6.1285   11.0565 I   0  0  0  0  0  0  0  0  0  0  0  0
   14.5296    8.6743    9.8120 C   0  0  0  0  0  0  0  0  0  0  0  0
   13.5243    8.5040    8.4513 Cl  0  0  0  0  0  0  0  0  0  0  0  0
   15.4380    9.7184    9.7695 C   0  0  0  0  0  0  0  0  0  0  0  0
   16.0420   10.1673   10.9388 C   0  0  0  0  0  0  0  0  0  0  0  0
   17.0745   11.1025   10.7431 N   0  0  0  0  0  0  0  0  0  0  0  0
   17.6158   11.9591   11.6688 C   0  0  0  0  0  0  0  0  0  0  0  0
   17.0298   12.3859   12.6585 O   0  0  0  0  0  0  0  0  0  0  0  0
   19.0248   12.3688   11.4295 C   0  0  0  0  0  0  0  0  0  0  0  0
   19.5330   13.4695   12.1281 C   0  0  0  0  0  0  0  0  0  0  0  0
   20.8779   13.8134   11.9917 C   0  0  0  0  0  0  0  0  0  0  0  0
   21.5662   15.1324   12.8181 Cl  0  0  0  0  0  0  0  0  0  0  0  0
   21.7249   13.0919   11.1360 C   0  0  0  0  0  0  0  0  0  0  0  0
   23.0317   13.2944   10.7284 N   0  0  0  0  0  0  0  0  0  0  0  0
   23.2403   12.3559    9.8475 C   0  0  0  0  0  0  0  0  0  0  0  0
   24.2904   12.2693    9.0718 O   0  0  0  0  0  0  0  0  0  0  0  0
   22.2135   11.4855    9.7415 N   0  0  0  0  0  0  0  0  0  0  0  0
   21.1878   11.9714   10.5031 C   0  0  0  0  0  0  0  0  0  0  0  0
   19.8599   11.5695   10.6314 C   0  0  0  0  0  0  0  0  0  0  0  0
  1  2  1  0
  2  3  2  0
  3  4  1  0
  4  5  1  0
  4  6  2  0
  6  7  1  0
  6  8  1  0
  8  9  2  0
  9 10  1  0
 10 11  1  0
 11 12  2  0
 11 13  1  0
 13 14  2  0
 14 15  1  0
 15 16  1  0
 15 17  2  0
 17 18  1  0
 18 19  2  0
 19 20  1  0
 19 21  1  0
 21 22  1  0
 22 23  2  0
  9  2  1  0
 23 13  1  0
 22 17  1  0
M  END
>  <HIPPO ID>  (129) 
91210

>  <alias>  (129) 
None

>  <ref_mols>  (129) 
c0692a,c0894a

>  <submitter_email>  (129) 
None

>  <ref_pdb>  (129) 
c0270a

>  <inchikey>  (129) 
SXYVLUOFUZMZEW-UHFFFAOYSA-N

>  <generation_date>  (129) 
None

>  <original ID>  (129) 
SXYVLUOFUZMZEW-UHFFFAOYSA-N

>  <tags>  (129) 
[]

>  <exports>  (129) 
nan

>  <method>  (129) 
None

>  <submitter_name>  (129) 
None

>  <original SMILES>  (129) 
Nc1cc(I)c(Cl)cc1NC(=O)c1cc(Cl)c2nc(O)[nH]c2c1

>  <ref_url>  (129) 
None

$$$$
VLDSXUSGFWEGHC-UHFFFAOYSA-N
     RDKit          3D

 23 25  0  0  0  0  0  0  0  0999 V2000
   16.2443   10.4400   13.6304 N   0  0  0  0  0  0  0  0  0  0  0  0
   15.7858    9.8771   12.4305 C   0  0  0  0  0  0  0  0  0  0  0  0
   15.0371    8.6947   12.5138 C   0  0  0  0  0  0  0  0  0  0  0  0
   14.5306    8.0995   11.3667 C   0  0  0  0  0  0  0  0  0  0  0  0
   13.5500    6.6824   11.5115 Cl  0  0  0  0  0  0  0  0  0  0  0  0
   14.7653    8.7222   10.1543 C   0  0  0  0  0  0  0  0  0  0  0  0
   13.5210    8.6058    8.5917 I   0  0  0  0  0  0  0  0  0  0  0  0
   15.7165    9.7101   10.0277 C   0  0  0  0  0  0  0  0  0  0  0  0
   16.2485   10.2833   11.1634 C   0  0  0  0  0  0  0  0  0  0  0  0
   17.2680   11.2021   10.8906 N   0  0  0  0  0  0  0  0  0  0  0  0
   17.7889   12.1407   11.7330 C   0  0  0  0  0  0  0  0  0  0  0  0
   17.1809   12.6605   12.6619 O   0  0  0  0  0  0  0  0  0  0  0  0
   19.2046   12.5075   11.4721 C   0  0  0  0  0  0  0  0  0  0  0  0
   19.7244   13.6053   12.1596 C   0  0  0  0  0  0  0  0  0  0  0  0
   21.0709   13.9210   12.0222 C   0  0  0  0  0  0  0  0  0  0  0  0
   21.7797   15.2175   12.8645 Cl  0  0  0  0  0  0  0  0  0  0  0  0
   21.9063   13.1768   11.1754 C   0  0  0  0  0  0  0  0  0  0  0  0
   23.2204   13.3394   10.8048 N   0  0  0  0  0  0  0  0  0  0  0  0
   23.4652   12.3696    9.9647 C   0  0  0  0  0  0  0  0  0  0  0  0
   24.6063   12.2386    9.3258 O   0  0  0  0  0  0  0  0  0  0  0  0
   22.3910   11.5576    9.7854 N   0  0  0  0  0  0  0  0  0  0  0  0
   21.3607   12.0665   10.5348 C   0  0  0  0  0  0  0  0  0  0  0  0
   20.0258   11.6876   10.6705 C   0  0  0  0  0  0  0  0  0  0  0  0
  1  2  1  0
  2  3  2  0
  3  4  1  0
  4  5  1  0
  4  6  2  0
  6  7  1  0
  6  8  1  0
  8  9  2  0
  9 10  1  0
 10 11  1  0
 11 12  2  0
 11 13  1  0
 13 14  2  0
 14 15  1  0
 15 16  1  0
 15 17  2  0
 17 18  1  0
 18 19  2  0
 19 20  1  0
 19 21  1  0
 21 22  1  0
 22 23  2  0
  9  2  1  0
 23 13  1  0
 22 17  1  0
M  END
>  <HIPPO ID>  (130) 
91211

>  <alias>  (130) 
None

>  <ref_mols>  (130) 
c0692a,c0894a

>  <submitter_email>  (130) 
None

>  <ref_pdb>  (130) 
c0270a

>  <inchikey>  (130) 
VLDSXUSGFWEGHC-UHFFFAOYSA-N

>  <generation_date>  (130) 
None

>  <original ID>  (130) 
VLDSXUSGFWEGHC-UHFFFAOYSA-N

>  <tags>  (130) 
[]

>  <exports>  (130) 
nan

>  <method>  (130) 
None

>  <submitter_name>  (130) 
None

>  <original SMILES>  (130) 
Nc1cc(Cl)c(I)cc1NC(=O)c1cc(Cl)c2nc(O)[nH]c2c1

>  <ref_url>  (130) 
None

$$$$
KJFIBDMMEUYAOB-UHFFFAOYSA-N
     RDKit          3D

 23 25  0  0  0  0  0  0  0  0999 V2000
   15.9562    9.8335   13.2997 N   0  0  0  0  0  0  0  0  0  0  0  0
   15.4488    9.4294   12.0533 C   0  0  0  0  0  0  0  0  0  0  0  0
   14.7298    8.2228   12.0028 C   0  0  0  0  0  0  0  0  0  0  0  0
   14.1940    7.7440   10.8044 C   0  0  0  0  0  0  0  0  0  0  0  0
   14.3842    8.4745    9.6482 C   0  0  0  0  0  0  0  0  0  0  0  0
   13.7010    8.1674    8.5421 F   0  0  0  0  0  0  0  0  0  0  0  0
   15.2445    9.5526    9.6529 C   0  0  0  0  0  0  0  0  0  0  0  0
   15.4982   10.1866    8.5059 F   0  0  0  0  0  0  0  0  0  0  0  0
   15.8254   10.0203   10.8347 C   0  0  0  0  0  0  0  0  0  0  0  0
   16.8272   11.0050   10.6727 N   0  0  0  0  0  0  0  0  0  0  0  0
   17.3500   11.8430   11.6293 C   0  0  0  0  0  0  0  0  0  0  0  0
   16.7619   12.2286   12.6343 O   0  0  0  0  0  0  0  0  0  0  0  0
   18.7506   12.2817   11.4176 C   0  0  0  0  0  0  0  0  0  0  0  0
   19.2408   13.3973   12.1105 C   0  0  0  0  0  0  0  0  0  0  0  0
   20.5857   13.7528   11.9872 C   0  0  0  0  0  0  0  0  0  0  0  0
   21.2605   15.0966   12.7848 Cl  0  0  0  0  0  0  0  0  0  0  0  0
   21.4451   13.0199   11.1559 C   0  0  0  0  0  0  0  0  0  0  0  0
   22.7411   13.2388   10.7269 N   0  0  0  0  0  0  0  0  0  0  0  0
   22.9466   12.2873    9.8602 C   0  0  0  0  0  0  0  0  0  0  0  0
   23.9243   12.2540    8.9967 O   0  0  0  0  0  0  0  0  0  0  0  0
   21.9638   11.3649    9.8331 N   0  0  0  0  0  0  0  0  0  0  0  0
   20.9252   11.8756   10.5540 C   0  0  0  0  0  0  0  0  0  0  0  0
   19.6002   11.4736   10.6521 C   0  0  0  0  0  0  0  0  0  0  0  0
  1  2  1  0
  2  3  2  0
  3  4  1  0
  4  5  2  0
  5  6  1  0
  5  7  1  0
  7  8  1  0
  7  9  2  0
  9 10  1  0
 10 11  1  0
 11 12  2  0
 11 13  1  0
 13 14  2  0
 14 15  1  0
 15 16  1  0
 15 17  2  0
 17 18  1  0
 18 19  2  0
 19 20  1  0
 19 21  1  0
 21 22  1  0
 22 23  2  0
  9  2  1  0
 23 13  1  0
 22 17  1  0
M  END
>  <HIPPO ID>  (131) 
91232

>  <alias>  (131) 
None

>  <ref_mols>  (131) 
c0692a,c0894a

>  <submitter_email>  (131) 
None

>  <ref_pdb>  (131) 
c0270a

>  <inchikey>  (131) 
KJFIBDMMEUYAOB-UHFFFAOYSA-N

>  <generation_date>  (131) 
None

>  <original ID>  (131) 
KJFIBDMMEUYAOB-UHFFFAOYSA-N

>  <tags>  (131) 
[]

>  <exports>  (131) 
nan

>  <method>  (131) 
None

>  <submitter_name>  (131) 
None

>  <original SMILES>  (131) 
Nc1ccc(F)c(F)c1NC(=O)c1cc(Cl)c2nc(O)[nH]c2c1

>  <ref_url>  (131) 
None

$$$$
NYXNLRQMOIRJGA-UHFFFAOYSA-N
     RDKit          3D

 23 25  0  0  0  0  0  0  0  0999 V2000
   23.5090   13.4646   11.2577 C   0  0  0  0  0  0  0  0  0  0  0  0
   22.4468   12.5558   10.9726 N   0  0  0  0  0  0  0  0  0  0  0  0
   22.5461   11.5730    9.9788 C   0  0  0  0  0  0  0  0  0  0  0  0
   23.4918   11.3666    9.2489 O   0  0  0  0  0  0  0  0  0  0  0  0
   21.3099   10.9278    9.9354 N   0  0  0  0  0  0  0  0  0  0  0  0
   20.4200   11.6155   10.7357 C   0  0  0  0  0  0  0  0  0  0  0  0
   19.0621   11.4142   10.8165 C   0  0  0  0  0  0  0  0  0  0  0  0
   18.3626   12.2918   11.6386 C   0  0  0  0  0  0  0  0  0  0  0  0
   16.8940   12.1942   11.8185 C   0  0  0  0  0  0  0  0  0  0  0  0
   16.3386   12.9236   12.6312 O   0  0  0  0  0  0  0  0  0  0  0  0
   16.1713   11.5181   10.8724 N   0  0  0  0  0  0  0  0  0  0  0  0
   15.6741   10.1964   10.9268 C   0  0  0  0  0  0  0  0  0  0  0  0
   15.1162    9.7584    9.7183 C   0  0  0  0  0  0  0  0  0  0  0  0
   14.4625    8.5399    9.6454 C   0  0  0  0  0  0  0  0  0  0  0  0
   13.7888    8.2466    8.5039 O   0  0  0  0  0  0  0  0  0  0  0  0
   14.4137    7.6938   10.7385 C   0  0  0  0  0  0  0  0  0  0  0  0
   14.9539    8.1265   11.9517 C   0  0  0  0  0  0  0  0  0  0  0  0
   15.5485    9.3917   12.0614 C   0  0  0  0  0  0  0  0  0  0  0  0
   15.9449    9.9270   13.6496 Cl  0  0  0  0  0  0  0  0  0  0  0  0
   19.0405   13.3433   12.3154 C   0  0  0  0  0  0  0  0  0  0  0  0
   20.4243   13.5244   12.1937 C   0  0  0  0  0  0  0  0  0  0  0  0
   21.1626   14.8534   12.9902 Cl  0  0  0  0  0  0  0  0  0  0  0  0
   21.1096   12.6407   11.3912 C   0  0  0  0  0  0  0  0  0  0  0  0
  1  2  1  0
  2  3  1  0
  3  4  2  0
  3  5  1  0
  5  6  1  0
  6  7  2  0
  7  8  1  0
  8  9  1  0
  9 10  2  0
  9 11  1  0
 11 12  1  0
 12 13  2  0
 13 14  1  0
 14 15  1  0
 14 16  2  0
 16 17  1  0
 17 18  2  0
 18 19  1  0
  8 20  2  0
 20 21  1  0
 21 22  1  0
 21 23  2  0
 23  2  1  0
 23  6  1  0
 18 12  1  0
M  END
>  <HIPPO ID>  (132) 
91325

>  <alias>  (132) 
None

>  <ref_mols>  (132) 
c0692a,c0894a

>  <submitter_email>  (132) 
None

>  <ref_pdb>  (132) 
c0270a

>  <inchikey>  (132) 
NYXNLRQMOIRJGA-UHFFFAOYSA-N

>  <generation_date>  (132) 
None

>  <original ID>  (132) 
NYXNLRQMOIRJGA-UHFFFAOYSA-N

>  <tags>  (132) 
[]

>  <exports>  (132) 
nan

>  <method>  (132) 
None

>  <submitter_name>  (132) 
None

>  <original SMILES>  (132) 
Cn1c(=O)[nH]c2cc(C(=O)Nc3cc(O)ccc3Cl)cc(Cl)c21

>  <ref_url>  (132) 
None

$$$$
QBRJGMWLXWVNGR-UHFFFAOYSA-N
     RDKit          3D

 23 25  0  0  0  0  0  0  0  0999 V2000
   16.1676   10.7174   14.3331 N   0  0  0  0  0  0  0  0  0  0  0  0
   15.8675   10.2885   13.2962 C   0  0  0  0  0  0  0  0  0  0  0  0
   15.5225    9.6716   12.0542 C   0  0  0  0  0  0  0  0  0  0  0  0
   14.6711    8.5715   12.1312 C   0  0  0  0  0  0  0  0  0  0  0  0
   14.1618    8.2016   13.3160 F   0  0  0  0  0  0  0  0  0  0  0  0
   14.2693    7.8651   11.0030 C   0  0  0  0  0  0  0  0  0  0  0  0
   14.6732    8.3016    9.7570 C   0  0  0  0  0  0  0  0  0  0  0  0
   15.5928    9.3387    9.6588 C   0  0  0  0  0  0  0  0  0  0  0  0
   16.0484   10.0144   10.8016 C   0  0  0  0  0  0  0  0  0  0  0  0
   17.1199   10.8984   10.5770 N   0  0  0  0  0  0  0  0  0  0  0  0
   17.5306   11.9263   11.3945 C   0  0  0  0  0  0  0  0  0  0  0  0
   16.7832   12.5657   12.1218 O   0  0  0  0  0  0  0  0  0  0  0  0
   18.9682   12.2976   11.3153 C   0  0  0  0  0  0  0  0  0  0  0  0
   19.4035   13.4208   12.0320 C   0  0  0  0  0  0  0  0  0  0  0  0
   20.7358   13.8166   11.9510 C   0  0  0  0  0  0  0  0  0  0  0  0
   21.3388   15.2005   12.7404 Cl  0  0  0  0  0  0  0  0  0  0  0  0
   21.6341   13.1265   11.1263 C   0  0  0  0  0  0  0  0  0  0  0  0
   22.9120   13.4272   10.7163 N   0  0  0  0  0  0  0  0  0  0  0  0
   23.1880   12.5123    9.8305 C   0  0  0  0  0  0  0  0  0  0  0  0
   24.1879   12.5702    8.9888 O   0  0  0  0  0  0  0  0  0  0  0  0
   22.2581   11.5327    9.7676 N   0  0  0  0  0  0  0  0  0  0  0  0
   21.1850   11.9636   10.5025 C   0  0  0  0  0  0  0  0  0  0  0  0
   19.8732   11.5046   10.5895 C   0  0  0  0  0  0  0  0  0  0  0  0
  1  2  3  0
  2  3  1  0
  3  4  2  0
  4  5  1  0
  4  6  1  0
  6  7  2  0
  7  8  1  0
  8  9  2  0
  9 10  1  0
 10 11  1  0
 11 12  2  0
 11 13  1  0
 13 14  2  0
 14 15  1  0
 15 16  1  0
 15 17  2  0
 17 18  1  0
 18 19  2  0
 19 20  1  0
 19 21  1  0
 21 22  1  0
 22 23  2  0
  9  3  1  0
 23 13  1  0
 22 17  1  0
M  END
>  <HIPPO ID>  (133) 
91773

>  <alias>  (133) 
None

>  <ref_mols>  (133) 
c0692a,c0894a

>  <submitter_email>  (133) 
None

>  <ref_pdb>  (133) 
c0270a

>  <inchikey>  (133) 
QBRJGMWLXWVNGR-UHFFFAOYSA-N

>  <generation_date>  (133) 
None

>  <original ID>  (133) 
QBRJGMWLXWVNGR-UHFFFAOYSA-N

>  <tags>  (133) 
[]

>  <exports>  (133) 
nan

>  <method>  (133) 
None

>  <submitter_name>  (133) 
None

>  <original SMILES>  (133) 
N#Cc1c(F)cccc1NC(=O)c1cc(Cl)c2nc(O)[nH]c2c1

>  <ref_url>  (133) 
None

$$$$
KKJGDJULZXMEQL-UHFFFAOYSA-N
     RDKit          3D

 23 25  0  0  0  0  0  0  0  0999 V2000
   13.2825    6.0119   10.0995 C   0  0  0  0  0  0  0  0  0  0  0  0
   13.3995    6.9446   11.1579 O   0  0  0  0  0  0  0  0  0  0  0  0
   14.2971    7.9511   10.9497 C   0  0  0  0  0  0  0  0  0  0  0  0
   14.6408    8.4715    9.7079 C   0  0  0  0  0  0  0  0  0  0  0  0
   15.5555    9.5138    9.6260 C   0  0  0  0  0  0  0  0  0  0  0  0
   16.0770   10.0900   10.7840 C   0  0  0  0  0  0  0  0  0  0  0  0
   17.0989   11.0293   10.6048 N   0  0  0  0  0  0  0  0  0  0  0  0
   17.5717   11.9106   11.5500 C   0  0  0  0  0  0  0  0  0  0  0  0
   16.9271   12.3725   12.4818 O   0  0  0  0  0  0  0  0  0  0  0  0
   18.9895   12.3253   11.3804 C   0  0  0  0  0  0  0  0  0  0  0  0
   19.4672   13.4225   12.1071 C   0  0  0  0  0  0  0  0  0  0  0  0
   20.8160   13.7687   12.0276 C   0  0  0  0  0  0  0  0  0  0  0  0
   21.4752   15.0815   12.8877 Cl  0  0  0  0  0  0  0  0  0  0  0  0
   21.6960   13.0528   11.2012 C   0  0  0  0  0  0  0  0  0  0  0  0
   23.0240   13.2435   10.8683 N   0  0  0  0  0  0  0  0  0  0  0  0
   23.2680   12.3129    9.9897 C   0  0  0  0  0  0  0  0  0  0  0  0
   24.3799   12.1967    9.3146 O   0  0  0  0  0  0  0  0  0  0  0  0
   22.2298   11.4770    9.7863 N   0  0  0  0  0  0  0  0  0  0  0  0
   21.1823   11.9470   10.5250 C   0  0  0  0  0  0  0  0  0  0  0  0
   19.8548   11.5397   10.6026 C   0  0  0  0  0  0  0  0  0  0  0  0
   15.6585    9.6176   12.0268 C   0  0  0  0  0  0  0  0  0  0  0  0
   16.1560   10.0968   13.1731 F   0  0  0  0  0  0  0  0  0  0  0  0
   14.7987    8.5353   12.1096 C   0  0  0  0  0  0  0  0  0  0  0  0
  1  2  1  0
  2  3  1  0
  3  4  2  0
  4  5  1  0
  5  6  2  0
  6  7  1  0
  7  8  1  0
  8  9  2  0
  8 10  1  0
 10 11  2  0
 11 12  1  0
 12 13  1  0
 12 14  2  0
 14 15  1  0
 15 16  2  0
 16 17  1  0
 16 18  1  0
 18 19  1  0
 19 20  2  0
  6 21  1  0
 21 22  1  0
 21 23  2  0
 23  3  1  0
 20 10  1  0
 19 14  1  0
M  END
>  <HIPPO ID>  (134) 
91774

>  <alias>  (134) 
None

>  <ref_mols>  (134) 
c0692a,c0894a

>  <submitter_email>  (134) 
None

>  <ref_pdb>  (134) 
c0270a

>  <inchikey>  (134) 
KKJGDJULZXMEQL-UHFFFAOYSA-N

>  <generation_date>  (134) 
None

>  <original ID>  (134) 
KKJGDJULZXMEQL-UHFFFAOYSA-N

>  <tags>  (134) 
[]

>  <exports>  (134) 
nan

>  <method>  (134) 
None

>  <submitter_name>  (134) 
None

>  <original SMILES>  (134) 
COc1ccc(NC(=O)c2cc(Cl)c3nc(O)[nH]c3c2)c(F)c1

>  <ref_url>  (134) 
None

$$$$
CBEQANZCCYGSMG-UHFFFAOYSA-N
     RDKit          3D

 23 25  0  0  0  0  0  0  0  0999 V2000
   17.1194   12.4759   12.6253 O   0  0  0  0  0  0  0  0  0  0  0  0
   17.7331   12.0411   11.6568 C   0  0  0  0  0  0  0  0  0  0  0  0
   17.2171   11.1471   10.7614 N   0  0  0  0  0  0  0  0  0  0  0  0
   16.1807   10.2374   10.9915 C   0  0  0  0  0  0  0  0  0  0  0  0
   15.6279    9.6944    9.8432 C   0  0  0  0  0  0  0  0  0  0  0  0
   14.6626    8.7173    9.9590 C   0  0  0  0  0  0  0  0  0  0  0  0
   13.5129    8.4935    8.5258 Br  0  0  0  0  0  0  0  0  0  0  0  0
   14.3698    8.1185   11.1668 C   0  0  0  0  0  0  0  0  0  0  0  0
   14.8541    8.7203   12.3115 C   0  0  0  0  0  0  0  0  0  0  0  0
   14.3575    8.3242   13.4913 F   0  0  0  0  0  0  0  0  0  0  0  0
   15.7234    9.8033   12.2406 C   0  0  0  0  0  0  0  0  0  0  0  0
   16.1035   10.3544   13.4273 O   0  0  0  0  0  0  0  0  0  0  0  0
   19.1372   12.4463   11.4257 C   0  0  0  0  0  0  0  0  0  0  0  0
   19.6243   13.5489   12.1306 C   0  0  0  0  0  0  0  0  0  0  0  0
   20.9697   13.8805   12.0279 C   0  0  0  0  0  0  0  0  0  0  0  0
   21.6475   15.1850   12.8837 Cl  0  0  0  0  0  0  0  0  0  0  0  0
   21.8323   13.1421   11.2048 C   0  0  0  0  0  0  0  0  0  0  0  0
   23.1555   13.3090   10.8802 N   0  0  0  0  0  0  0  0  0  0  0  0
   23.4300   12.3398   10.0498 C   0  0  0  0  0  0  0  0  0  0  0  0
   24.5985   12.2000    9.4725 O   0  0  0  0  0  0  0  0  0  0  0  0
   22.3642   11.5333    9.8199 N   0  0  0  0  0  0  0  0  0  0  0  0
   21.3126   12.0320   10.5427 C   0  0  0  0  0  0  0  0  0  0  0  0
   19.9809   11.6404   10.6382 C   0  0  0  0  0  0  0  0  0  0  0  0
  1  2  2  0
  2  3  1  0
  3  4  1  0
  4  5  2  0
  5  6  1  0
  6  7  1  0
  6  8  2  0
  8  9  1  0
  9 10  1  0
  9 11  2  0
 11 12  1  0
  2 13  1  0
 13 14  2  0
 14 15  1  0
 15 16  1  0
 15 17  2  0
 17 18  1  0
 18 19  2  0
 19 20  1  0
 19 21  1  0
 21 22  1  0
 22 23  2  0
 11  4  1  0
 23 13  1  0
 22 17  1  0
M  END
>  <HIPPO ID>  (135) 
92006

>  <alias>  (135) 
None

>  <ref_mols>  (135) 
c0692a,c0894a

>  <submitter_email>  (135) 
None

>  <ref_pdb>  (135) 
c0270a

>  <inchikey>  (135) 
CBEQANZCCYGSMG-UHFFFAOYSA-N

>  <generation_date>  (135) 
None

>  <original ID>  (135) 
CBEQANZCCYGSMG-UHFFFAOYSA-N

>  <tags>  (135) 
[]

>  <exports>  (135) 
nan

>  <method>  (135) 
None

>  <submitter_name>  (135) 
None

>  <original SMILES>  (135) 
O=C(Nc1cc(Br)cc(F)c1O)c1cc(Cl)c2nc(O)[nH]c2c1

>  <ref_url>  (135) 
None

$$$$
IIMOYWIDALCZER-UHFFFAOYSA-N
     RDKit          3D

 23 25  0  0  0  0  0  0  0  0999 V2000
   16.9074   12.3175   12.4546 O   0  0  0  0  0  0  0  0  0  0  0  0
   17.5533   11.8588   11.5221 C   0  0  0  0  0  0  0  0  0  0  0  0
   17.0744   10.9813   10.5731 N   0  0  0  0  0  0  0  0  0  0  0  0
   16.0306   10.0570   10.7364 C   0  0  0  0  0  0  0  0  0  0  0  0
   15.5266    9.4790    9.5677 C   0  0  0  0  0  0  0  0  0  0  0  0
   14.6292    8.4178    9.6279 C   0  0  0  0  0  0  0  0  0  0  0  0
   14.2845    7.8819   10.8586 C   0  0  0  0  0  0  0  0  0  0  0  0
   13.2250    6.3173   10.9149 Br  0  0  0  0  0  0  0  0  0  0  0  0
   14.7136    8.5074   12.0254 C   0  0  0  0  0  0  0  0  0  0  0  0
   14.2700    8.0929   13.2212 F   0  0  0  0  0  0  0  0  0  0  0  0
   15.5705    9.5974   11.9698 C   0  0  0  0  0  0  0  0  0  0  0  0
   16.0248   10.0971   13.1259 F   0  0  0  0  0  0  0  0  0  0  0  0
   18.9730   12.2801   11.3566 C   0  0  0  0  0  0  0  0  0  0  0  0
   19.4434   13.3797   12.0861 C   0  0  0  0  0  0  0  0  0  0  0  0
   20.7890   13.7424   12.0046 C   0  0  0  0  0  0  0  0  0  0  0  0
   21.4337   15.0641   12.8627 Cl  0  0  0  0  0  0  0  0  0  0  0  0
   21.6756   13.0420   11.1716 C   0  0  0  0  0  0  0  0  0  0  0  0
   22.9970   13.2596   10.8236 N   0  0  0  0  0  0  0  0  0  0  0  0
   23.2463   12.3432    9.9309 C   0  0  0  0  0  0  0  0  0  0  0  0
   24.3402   12.2704    9.2178 O   0  0  0  0  0  0  0  0  0  0  0  0
   22.2258   11.4789    9.7498 N   0  0  0  0  0  0  0  0  0  0  0  0
   21.1739   11.9292   10.4977 C   0  0  0  0  0  0  0  0  0  0  0  0
   19.8485   11.5063   10.5781 C   0  0  0  0  0  0  0  0  0  0  0  0
  1  2  2  0
  2  3  1  0
  3  4  1  0
  4  5  2  0
  5  6  1  0
  6  7  2  0
  7  8  1  0
  7  9  1  0
  9 10  1  0
  9 11  2  0
 11 12  1  0
  2 13  1  0
 13 14  2  0
 14 15  1  0
 15 16  1  0
 15 17  2  0
 17 18  1  0
 18 19  2  0
 19 20  1  0
 19 21  1  0
 21 22  1  0
 22 23  2  0
 11  4  1  0
 23 13  1  0
 22 17  1  0
M  END
>  <HIPPO ID>  (136) 
92014

>  <alias>  (136) 
None

>  <ref_mols>  (136) 
c0692a,c0894a

>  <submitter_email>  (136) 
None

>  <ref_pdb>  (136) 
c0270a

>  <inchikey>  (136) 
IIMOYWIDALCZER-UHFFFAOYSA-N

>  <generation_date>  (136) 
None

>  <original ID>  (136) 
IIMOYWIDALCZER-UHFFFAOYSA-N

>  <tags>  (136) 
[]

>  <exports>  (136) 
nan

>  <method>  (136) 
None

>  <submitter_name>  (136) 
None

>  <original SMILES>  (136) 
O=C(Nc1ccc(Br)c(F)c1F)c1cc(Cl)c2nc(O)[nH]c2c1

>  <ref_url>  (136) 
None

$$$$
ZBDLOXNAFWXUPQ-UHFFFAOYSA-N
     RDKit          3D

 23 25  0  0  0  0  0  0  0  0999 V2000
   23.9146   13.6556   11.7475 C   0  0  0  0  0  0  0  0  0  0  0  0
   22.8836   12.9362   11.0761 N   0  0  0  0  0  0  0  0  0  0  0  0
   23.1423   12.0555   10.0172 C   0  0  0  0  0  0  0  0  0  0  0  0
   24.1634   11.9456    9.3733 O   0  0  0  0  0  0  0  0  0  0  0  0
   21.9750   11.3438    9.8010 N   0  0  0  0  0  0  0  0  0  0  0  0
   20.9826   11.8527   10.6113 C   0  0  0  0  0  0  0  0  0  0  0  0
   19.6577   11.5091   10.5999 C   0  0  0  0  0  0  0  0  0  0  0  0
   18.8040   12.2839   11.3831 C   0  0  0  0  0  0  0  0  0  0  0  0
   17.3526   11.9731   11.4670 C   0  0  0  0  0  0  0  0  0  0  0  0
   16.6495   12.6573   12.1965 O   0  0  0  0  0  0  0  0  0  0  0  0
   16.9093   10.9655   10.6489 N   0  0  0  0  0  0  0  0  0  0  0  0
   15.8873   10.0214   10.8632 C   0  0  0  0  0  0  0  0  0  0  0  0
   15.4378    9.4120    9.6796 C   0  0  0  0  0  0  0  0  0  0  0  0
   14.5952    8.3069    9.7046 C   0  0  0  0  0  0  0  0  0  0  0  0
   14.2869    7.7192   10.9154 C   0  0  0  0  0  0  0  0  0  0  0  0
   13.1947    5.9617   10.9766 I   0  0  0  0  0  0  0  0  0  0  0  0
   14.6808    8.3298   12.1012 C   0  0  0  0  0  0  0  0  0  0  0  0
   15.4123    9.5284   12.0880 C   0  0  0  0  0  0  0  0  0  0  0  0
   15.6787   10.3334   14.0006 I   0  0  0  0  0  0  0  0  0  0  0  0
   19.3228   13.3265   12.1904 C   0  0  0  0  0  0  0  0  0  0  0  0
   20.6957   13.6084   12.2221 C   0  0  0  0  0  0  0  0  0  0  0  0
   21.2444   14.9058   13.1990 Cl  0  0  0  0  0  0  0  0  0  0  0  0
   21.5203   12.8675   11.4025 C   0  0  0  0  0  0  0  0  0  0  0  0
  1  2  1  0
  2  3  1  0
  3  4  2  0
  3  5  1  0
  5  6  1  0
  6  7  2  0
  7  8  1  0
  8  9  1  0
  9 10  2  0
  9 11  1  0
 11 12  1  0
 12 13  2  0
 13 14  1  0
 14 15  2  0
 15 16  1  0
 15 17  1  0
 17 18  2  0
 18 19  1  0
  8 20  2  0
 20 21  1  0
 21 22  1  0
 21 23  2  0
 23  2  1  0
 23  6  1  0
 18 12  1  0
M  END
>  <HIPPO ID>  (137) 
92161

>  <alias>  (137) 
None

>  <ref_mols>  (137) 
c0692a,c0894a

>  <submitter_email>  (137) 
None

>  <ref_pdb>  (137) 
c0270a

>  <inchikey>  (137) 
ZBDLOXNAFWXUPQ-UHFFFAOYSA-N

>  <generation_date>  (137) 
None

>  <original ID>  (137) 
ZBDLOXNAFWXUPQ-UHFFFAOYSA-N

>  <tags>  (137) 
[]

>  <exports>  (137) 
nan

>  <method>  (137) 
None

>  <submitter_name>  (137) 
None

>  <original SMILES>  (137) 
Cn1c(=O)[nH]c2cc(C(=O)Nc3ccc(I)cc3I)cc(Cl)c21

>  <ref_url>  (137) 
None

$$$$
GDGBZFGWWJGXOE-UHFFFAOYSA-N
     RDKit          3D

 23 25  0  0  0  0  0  0  0  0999 V2000
   12.7245    6.1552   11.7394 C   0  0  0  0  0  0  0  0  0  0  0  0
   13.1695    6.8102   10.5606 O   0  0  0  0  0  0  0  0  0  0  0  0
   14.1088    7.7934   10.6912 C   0  0  0  0  0  0  0  0  0  0  0  0
   14.4182    8.4453    9.5022 C   0  0  0  0  0  0  0  0  0  0  0  0
   15.3423    9.4830    9.4864 C   0  0  0  0  0  0  0  0  0  0  0  0
   15.9165    9.9308   10.6719 C   0  0  0  0  0  0  0  0  0  0  0  0
   16.9166   10.9063   10.5619 N   0  0  0  0  0  0  0  0  0  0  0  0
   17.4350   11.6649   11.5866 C   0  0  0  0  0  0  0  0  0  0  0  0
   16.8779   11.9254   12.6460 O   0  0  0  0  0  0  0  0  0  0  0  0
   18.8213   12.1565   11.3877 C   0  0  0  0  0  0  0  0  0  0  0  0
   19.3064   13.2187   12.1879 C   0  0  0  0  0  0  0  0  0  0  0  0
   20.6640   13.5766   12.1733 C   0  0  0  0  0  0  0  0  0  0  0  0
   21.1719   14.8956   13.1437 Cl  0  0  0  0  0  0  0  0  0  0  0  0
   21.5031   12.8857   11.3225 C   0  0  0  0  0  0  0  0  0  0  0  0
   20.9933   11.8486   10.5417 C   0  0  0  0  0  0  0  0  0  0  0  0
   19.6855   11.4438   10.5604 C   0  0  0  0  0  0  0  0  0  0  0  0
   21.9881   11.3866    9.7069 N   0  0  0  0  0  0  0  0  0  0  0  0
   23.1142   12.1727    9.8671 C   0  0  0  0  0  0  0  0  0  0  0  0
   24.0970   12.1385    9.1571 O   0  0  0  0  0  0  0  0  0  0  0  0
   22.8501   13.0295   10.9471 N   0  0  0  0  0  0  0  0  0  0  0  0
   23.8888   13.7252   11.6315 C   0  0  0  0  0  0  0  0  0  0  0  0
   15.5615    9.3285   11.8762 C   0  0  0  0  0  0  0  0  0  0  0  0
   14.6934    8.2307   11.8801 C   0  0  0  0  0  0  0  0  0  0  0  0
  1  2  1  0
  2  3  1  0
  3  4  2  0
  4  5  1  0
  5  6  2  0
  6  7  1  0
  7  8  1  0
  8  9  2  0
  8 10  1  0
 10 11  2  0
 11 12  1  0
 12 13  1  0
 12 14  2  0
 14 15  1  0
 15 16  2  0
 15 17  1  0
 17 18  1  0
 18 19  2  0
 18 20  1  0
 20 21  1  0
  6 22  1  0
 22 23  2  0
 23  3  1  0
 16 10  1  0
 20 14  1  0
M  END
>  <HIPPO ID>  (138) 
92183

>  <alias>  (138) 
None

>  <ref_mols>  (138) 
c0692a,c0894a

>  <submitter_email>  (138) 
None

>  <ref_pdb>  (138) 
c0270a

>  <inchikey>  (138) 
GDGBZFGWWJGXOE-UHFFFAOYSA-N

>  <generation_date>  (138) 
None

>  <original ID>  (138) 
GDGBZFGWWJGXOE-UHFFFAOYSA-N

>  <tags>  (138) 
[]

>  <exports>  (138) 
nan

>  <method>  (138) 
None

>  <submitter_name>  (138) 
None

>  <original SMILES>  (138) 
COc1ccc(NC(=O)c2cc(Cl)c3c(c2)[nH]c(=O)n3C)cc1

>  <ref_url>  (138) 
None

$$$$
ZMSYOYSKOOLDEF-UHFFFAOYSA-N
     RDKit          3D

 24 26  0  0  0  0  0  0  0  0999 V2000
   24.3615   13.7360   11.4265 C   0  0  0  0  0  0  0  0  0  0  0  0
   23.2307   13.1258   10.8110 N   0  0  0  0  0  0  0  0  0  0  0  0
   23.3772   12.2482    9.7221 C   0  0  0  0  0  0  0  0  0  0  0  0
   24.3172   12.1483    8.9613 O   0  0  0  0  0  0  0  0  0  0  0  0
   22.1994   11.5288    9.6370 N   0  0  0  0  0  0  0  0  0  0  0  0
   21.2953   12.0422   10.5425 C   0  0  0  0  0  0  0  0  0  0  0  0
   19.9784   11.7023   10.6694 C   0  0  0  0  0  0  0  0  0  0  0  0
   19.2160   12.4755   11.5480 C   0  0  0  0  0  0  0  0  0  0  0  0
   17.8120   12.1060   11.8324 C   0  0  0  0  0  0  0  0  0  0  0  0
   17.2781   12.4875   12.8655 O   0  0  0  0  0  0  0  0  0  0  0  0
   17.2499   11.2713   10.9109 N   0  0  0  0  0  0  0  0  0  0  0  0
   16.2693   10.3234   11.1688 C   0  0  0  0  0  0  0  0  0  0  0  0
   15.7284    9.7373   10.0487 C   0  0  0  0  0  0  0  0  0  0  0  0
   14.7717    8.7626   10.2102 C   0  0  0  0  0  0  0  0  0  0  0  0
   13.5443    8.5557    8.6415 I   0  0  0  0  0  0  0  0  0  0  0  0
   14.4861    8.2143   11.4508 C   0  0  0  0  0  0  0  0  0  0  0  0
   13.6186    7.1566   11.5269 O   0  0  0  0  0  0  0  0  0  0  0  0
   14.9961    8.8429   12.5821 C   0  0  0  0  0  0  0  0  0  0  0  0
   14.3650    8.3106   14.4972 I   0  0  0  0  0  0  0  0  0  0  0  0
   15.8660    9.9234   12.4433 C   0  0  0  0  0  0  0  0  0  0  0  0
   19.8064   13.5034   12.3084 C   0  0  0  0  0  0  0  0  0  0  0  0
   21.1715   13.7852   12.1917 C   0  0  0  0  0  0  0  0  0  0  0  0
   21.7940   15.0866   13.1149 Cl  0  0  0  0  0  0  0  0  0  0  0  0
   21.9098   13.0524   11.2821 C   0  0  0  0  0  0  0  0  0  0  0  0
  1  2  1  0
  2  3  1  0
  3  4  2  0
  3  5  1  0
  5  6  1  0
  6  7  2  0
  7  8  1  0
  8  9  1  0
  9 10  2  0
  9 11  1  0
 11 12  1  0
 12 13  2  0
 13 14  1  0
 14 15  1  0
 14 16  2  0
 16 17  1  0
 16 18  1  0
 18 19  1  0
 18 20  2  0
  8 21  2  0
 21 22  1  0
 22 23  1  0
 22 24  2  0
 24  2  1  0
 24  6  1  0
 20 12  1  0
M  END
>  <HIPPO ID>  (139) 
92286

>  <alias>  (139) 
None

>  <ref_mols>  (139) 
c0692a,c0894a

>  <submitter_email>  (139) 
None

>  <ref_pdb>  (139) 
c0270a

>  <inchikey>  (139) 
ZMSYOYSKOOLDEF-UHFFFAOYSA-N

>  <generation_date>  (139) 
None

>  <original ID>  (139) 
ZMSYOYSKOOLDEF-UHFFFAOYSA-N

>  <tags>  (139) 
[]

>  <exports>  (139) 
nan

>  <method>  (139) 
None

>  <submitter_name>  (139) 
None

>  <original SMILES>  (139) 
Cn1c(=O)[nH]c2cc(C(=O)Nc3cc(I)c(O)c(I)c3)cc(Cl)c21

>  <ref_url>  (139) 
None

$$$$
NVGOZFSVGLPWDU-UHFFFAOYSA-N
     RDKit          3D

 24 26  0  0  0  0  0  0  0  0999 V2000
   23.9218   13.6791   11.5480 C   0  0  0  0  0  0  0  0  0  0  0  0
   22.8525   12.9668   10.9318 N   0  0  0  0  0  0  0  0  0  0  0  0
   23.0587   12.0913    9.8554 C   0  0  0  0  0  0  0  0  0  0  0  0
   24.0061   12.0342    9.1018 O   0  0  0  0  0  0  0  0  0  0  0  0
   21.9136   11.3255    9.7461 N   0  0  0  0  0  0  0  0  0  0  0  0
   20.9534   11.8383   10.5876 C   0  0  0  0  0  0  0  0  0  0  0  0
   19.6332   11.4862   10.6174 C   0  0  0  0  0  0  0  0  0  0  0  0
   18.8042   12.2602   11.4226 C   0  0  0  0  0  0  0  0  0  0  0  0
   17.3824   11.8806   11.5854 C   0  0  0  0  0  0  0  0  0  0  0  0
   16.7736   12.3011   12.5636 O   0  0  0  0  0  0  0  0  0  0  0  0
   16.8609   11.0591   10.6142 N   0  0  0  0  0  0  0  0  0  0  0  0
   15.8444   10.0963   10.7581 C   0  0  0  0  0  0  0  0  0  0  0  0
   15.2800    9.6473    9.5603 C   0  0  0  0  0  0  0  0  0  0  0  0
   14.4184    8.5663    9.5605 C   0  0  0  0  0  0  0  0  0  0  0  0
   13.7550    8.2733    8.4371 F   0  0  0  0  0  0  0  0  0  0  0  0
   14.2329    7.8312   10.7180 C   0  0  0  0  0  0  0  0  0  0  0  0
   13.2210    6.2394   10.7076 Br  0  0  0  0  0  0  0  0  0  0  0  0
   14.7556    8.2988   11.9238 C   0  0  0  0  0  0  0  0  0  0  0  0
   15.4622    9.5058   11.9787 C   0  0  0  0  0  0  0  0  0  0  0  0
   15.9660    9.9100   13.2276 N   0  0  0  0  0  0  0  0  0  0  0  0
   19.3382   13.3100   12.2084 C   0  0  0  0  0  0  0  0  0  0  0  0
   20.7091   13.6088   12.1860 C   0  0  0  0  0  0  0  0  0  0  0  0
   21.2724   14.9216   13.1332 Cl  0  0  0  0  0  0  0  0  0  0  0  0
   21.5113   12.8725   11.3395 C   0  0  0  0  0  0  0  0  0  0  0  0
  1  2  1  0
  2  3  1  0
  3  4  2  0
  3  5  1  0
  5  6  1  0
  6  7  2  0
  7  8  1  0
  8  9  1  0
  9 10  2  0
  9 11  1  0
 11 12  1  0
 12 13  2  0
 13 14  1  0
 14 15  1  0
 14 16  2  0
 16 17  1  0
 16 18  1  0
 18 19  2  0
 19 20  1  0
  8 21  2  0
 21 22  1  0
 22 23  1  0
 22 24  2  0
 24  2  1  0
 24  6  1  0
 19 12  1  0
M  END
>  <HIPPO ID>  (140) 
92389

>  <alias>  (140) 
None

>  <ref_mols>  (140) 
c0692a,c0894a

>  <submitter_email>  (140) 
None

>  <ref_pdb>  (140) 
c0270a

>  <inchikey>  (140) 
NVGOZFSVGLPWDU-UHFFFAOYSA-N

>  <generation_date>  (140) 
None

>  <original ID>  (140) 
NVGOZFSVGLPWDU-UHFFFAOYSA-N

>  <tags>  (140) 
[]

>  <exports>  (140) 
nan

>  <method>  (140) 
None

>  <submitter_name>  (140) 
None

>  <original SMILES>  (140) 
Cn1c(=O)[nH]c2cc(C(=O)Nc3cc(F)c(Br)cc3N)cc(Cl)c21

>  <ref_url>  (140) 
None

$$$$
XZIDTCRQUREFGD-UHFFFAOYSA-N
     RDKit          3D

 24 26  0  0  0  0  0  0  0  0999 V2000
   24.0851   13.6361   11.5662 C   0  0  0  0  0  0  0  0  0  0  0  0
   22.9753   12.9805   10.9581 N   0  0  0  0  0  0  0  0  0  0  0  0
   23.1393   12.0355    9.9358 C   0  0  0  0  0  0  0  0  0  0  0  0
   24.1143   11.8328    9.2501 O   0  0  0  0  0  0  0  0  0  0  0  0
   21.9421   11.3657    9.8096 N   0  0  0  0  0  0  0  0  0  0  0  0
   21.0224   11.9513   10.6419 C   0  0  0  0  0  0  0  0  0  0  0  0
   19.7005   11.6417   10.7159 C   0  0  0  0  0  0  0  0  0  0  0  0
   18.9266   12.4446   11.5497 C   0  0  0  0  0  0  0  0  0  0  0  0
   17.5199   12.0697   11.7912 C   0  0  0  0  0  0  0  0  0  0  0  0
   16.9462   12.4857   12.7898 O   0  0  0  0  0  0  0  0  0  0  0  0
   16.9929   11.2187   10.8620 N   0  0  0  0  0  0  0  0  0  0  0  0
   16.0273   10.2286   11.0559 C   0  0  0  0  0  0  0  0  0  0  0  0
   15.4854    9.7566    9.8711 C   0  0  0  0  0  0  0  0  0  0  0  0
   14.5664    8.7379    9.9201 C   0  0  0  0  0  0  0  0  0  0  0  0
   13.4644    8.5413    8.4533 Br  0  0  0  0  0  0  0  0  0  0  0  0
   14.3284    8.0451   11.0889 C   0  0  0  0  0  0  0  0  0  0  0  0
   13.4286    7.0504   11.1182 F   0  0  0  0  0  0  0  0  0  0  0  0
   14.8792    8.4970   12.2766 C   0  0  0  0  0  0  0  0  0  0  0  0
   15.6353    9.6726   12.2926 C   0  0  0  0  0  0  0  0  0  0  0  0
   16.1593   10.0921   13.5260 N   0  0  0  0  0  0  0  0  0  0  0  0
   19.5064   13.4891   12.3015 C   0  0  0  0  0  0  0  0  0  0  0  0
   20.8809   13.7471   12.2257 C   0  0  0  0  0  0  0  0  0  0  0  0
   21.5133   15.0474   13.1438 Cl  0  0  0  0  0  0  0  0  0  0  0  0
   21.6342   12.9708   11.3695 C   0  0  0  0  0  0  0  0  0  0  0  0
  1  2  1  0
  2  3  1  0
  3  4  2  0
  3  5  1  0
  5  6  1  0
  6  7  2  0
  7  8  1  0
  8  9  1  0
  9 10  2  0
  9 11  1  0
 11 12  1  0
 12 13  2  0
 13 14  1  0
 14 15  1  0
 14 16  2  0
 16 17  1  0
 16 18  1  0
 18 19  2  0
 19 20  1  0
  8 21  2  0
 21 22  1  0
 22 23  1  0
 22 24  2  0
 24  2  1  0
 24  6  1  0
 19 12  1  0
M  END
>  <HIPPO ID>  (141) 
92390

>  <alias>  (141) 
None

>  <ref_mols>  (141) 
c0692a,c0894a

>  <submitter_email>  (141) 
None

>  <ref_pdb>  (141) 
c0270a

>  <inchikey>  (141) 
XZIDTCRQUREFGD-UHFFFAOYSA-N

>  <generation_date>  (141) 
None

>  <original ID>  (141) 
XZIDTCRQUREFGD-UHFFFAOYSA-N

>  <tags>  (141) 
[]

>  <exports>  (141) 
nan

>  <method>  (141) 
None

>  <submitter_name>  (141) 
None

>  <original SMILES>  (141) 
Cn1c(=O)[nH]c2cc(C(=O)Nc3cc(Br)c(F)cc3N)cc(Cl)c21

>  <ref_url>  (141) 
None

$$$$
XRUPMBUAEHNJPR-UHFFFAOYSA-N
     RDKit          3D

 24 26  0  0  0  0  0  0  0  0999 V2000
   23.7368   13.6926   11.0848 C   0  0  0  0  0  0  0  0  0  0  0  0
   22.7216   12.7147   10.9096 N   0  0  0  0  0  0  0  0  0  0  0  0
   22.8415   11.7601    9.8849 C   0  0  0  0  0  0  0  0  0  0  0  0
   23.7317   11.6492    9.0721 O   0  0  0  0  0  0  0  0  0  0  0  0
   21.6689   11.0335    9.8774 N   0  0  0  0  0  0  0  0  0  0  0  0
   20.7605   11.6852   10.6687 C   0  0  0  0  0  0  0  0  0  0  0  0
   19.4297   11.4124   10.7018 C   0  0  0  0  0  0  0  0  0  0  0  0
   18.6445   12.2761   11.4496 C   0  0  0  0  0  0  0  0  0  0  0  0
   17.2291   11.9037   11.6376 C   0  0  0  0  0  0  0  0  0  0  0  0
   16.6522   12.2747   12.6520 O   0  0  0  0  0  0  0  0  0  0  0  0
   16.6991   11.1153   10.6422 N   0  0  0  0  0  0  0  0  0  0  0  0
   15.7402   10.0960   10.7605 C   0  0  0  0  0  0  0  0  0  0  0  0
   15.1851    9.6729    9.5481 C   0  0  0  0  0  0  0  0  0  0  0  0
   14.3509    8.5721    9.5133 C   0  0  0  0  0  0  0  0  0  0  0  0
   13.6939    8.3002    8.3805 F   0  0  0  0  0  0  0  0  0  0  0  0
   14.1768    7.7993   10.6482 C   0  0  0  0  0  0  0  0  0  0  0  0
   13.2244    6.3710   10.6036 Cl  0  0  0  0  0  0  0  0  0  0  0  0
   14.7164    8.2226   11.8641 C   0  0  0  0  0  0  0  0  0  0  0  0
   15.4071    9.4369   11.9599 C   0  0  0  0  0  0  0  0  0  0  0  0
   15.9457    9.7873   13.2115 N   0  0  0  0  0  0  0  0  0  0  0  0
   19.2208   13.3674   12.1410 C   0  0  0  0  0  0  0  0  0  0  0  0
   20.6043   13.6166   12.0679 C   0  0  0  0  0  0  0  0  0  0  0  0
   21.2367   14.9909   12.8754 Cl  0  0  0  0  0  0  0  0  0  0  0  0
   21.3751   12.7564   11.3124 C   0  0  0  0  0  0  0  0  0  0  0  0
  1  2  1  0
  2  3  1  0
  3  4  2  0
  3  5  1  0
  5  6  1  0
  6  7  2  0
  7  8  1  0
  8  9  1  0
  9 10  2  0
  9 11  1  0
 11 12  1  0
 12 13  2  0
 13 14  1  0
 14 15  1  0
 14 16  2  0
 16 17  1  0
 16 18  1  0
 18 19  2  0
 19 20  1  0
  8 21  2  0
 21 22  1  0
 22 23  1  0
 22 24  2  0
 24  2  1  0
 24  6  1  0
 19 12  1  0
M  END
>  <HIPPO ID>  (142) 
92406

>  <alias>  (142) 
None

>  <ref_mols>  (142) 
c0692a,c0894a

>  <submitter_email>  (142) 
None

>  <ref_pdb>  (142) 
c0270a

>  <inchikey>  (142) 
XRUPMBUAEHNJPR-UHFFFAOYSA-N

>  <generation_date>  (142) 
None

>  <original ID>  (142) 
XRUPMBUAEHNJPR-UHFFFAOYSA-N

>  <tags>  (142) 
[]

>  <exports>  (142) 
nan

>  <method>  (142) 
None

>  <submitter_name>  (142) 
None

>  <original SMILES>  (142) 
Cn1c(=O)[nH]c2cc(C(=O)Nc3cc(F)c(Cl)cc3N)cc(Cl)c21

>  <ref_url>  (142) 
None

$$$$
RXQNQAGELFYFJX-UHFFFAOYSA-N
     RDKit          3D

 24 26  0  0  0  0  0  0  0  0999 V2000
   24.1503   13.7111   11.5892 C   0  0  0  0  0  0  0  0  0  0  0  0
   23.0766   13.0545   10.9209 N   0  0  0  0  0  0  0  0  0  0  0  0
   23.2953   12.1940    9.8327 C   0  0  0  0  0  0  0  0  0  0  0  0
   24.2770   12.1202    9.1234 O   0  0  0  0  0  0  0  0  0  0  0  0
   22.1345   11.4575    9.6758 N   0  0  0  0  0  0  0  0  0  0  0  0
   21.1744   11.9396   10.5414 C   0  0  0  0  0  0  0  0  0  0  0  0
   19.8559   11.5753   10.5949 C   0  0  0  0  0  0  0  0  0  0  0  0
   19.0332   12.3285   11.4319 C   0  0  0  0  0  0  0  0  0  0  0  0
   17.6127   11.9531   11.6259 C   0  0  0  0  0  0  0  0  0  0  0  0
   17.0040   12.4073   12.5894 O   0  0  0  0  0  0  0  0  0  0  0  0
   17.0913   11.0870   10.7011 N   0  0  0  0  0  0  0  0  0  0  0  0
   16.0463   10.1687   10.8854 C   0  0  0  0  0  0  0  0  0  0  0  0
   15.4638    9.7190    9.7040 C   0  0  0  0  0  0  0  0  0  0  0  0
   14.5063    8.7297    9.7542 C   0  0  0  0  0  0  0  0  0  0  0  0
   13.4936    8.5173    8.4153 Cl  0  0  0  0  0  0  0  0  0  0  0  0
   14.2707    8.0450   10.9298 C   0  0  0  0  0  0  0  0  0  0  0  0
   13.3630    7.0577   10.9705 F   0  0  0  0  0  0  0  0  0  0  0  0
   14.8347    8.4922   12.1154 C   0  0  0  0  0  0  0  0  0  0  0  0
   15.6193    9.6482   12.1257 C   0  0  0  0  0  0  0  0  0  0  0  0
   16.1286   10.0774   13.3622 N   0  0  0  0  0  0  0  0  0  0  0  0
   19.5715   13.3657   12.2270 C   0  0  0  0  0  0  0  0  0  0  0  0
   20.9383   13.6686   12.1916 C   0  0  0  0  0  0  0  0  0  0  0  0
   21.5007   14.9674   13.1580 Cl  0  0  0  0  0  0  0  0  0  0  0  0
   21.7338   12.9536   11.3193 C   0  0  0  0  0  0  0  0  0  0  0  0
  1  2  1  0
  2  3  1  0
  3  4  2  0
  3  5  1  0
  5  6  1  0
  6  7  2  0
  7  8  1  0
  8  9  1  0
  9 10  2  0
  9 11  1  0
 11 12  1  0
 12 13  2  0
 13 14  1  0
 14 15  1  0
 14 16  2  0
 16 17  1  0
 16 18  1  0
 18 19  2  0
 19 20  1  0
  8 21  2  0
 21 22  1  0
 22 23  1  0
 22 24  2  0
 24  2  1  0
 24  6  1  0
 19 12  1  0
M  END
>  <HIPPO ID>  (143) 
92407

>  <alias>  (143) 
None

>  <ref_mols>  (143) 
c0692a,c0894a

>  <submitter_email>  (143) 
None

>  <ref_pdb>  (143) 
c0270a

>  <inchikey>  (143) 
RXQNQAGELFYFJX-UHFFFAOYSA-N

>  <generation_date>  (143) 
None

>  <original ID>  (143) 
RXQNQAGELFYFJX-UHFFFAOYSA-N

>  <tags>  (143) 
[]

>  <exports>  (143) 
nan

>  <method>  (143) 
None

>  <submitter_name>  (143) 
None

>  <original SMILES>  (143) 
Cn1c(=O)[nH]c2cc(C(=O)Nc3cc(Cl)c(F)cc3N)cc(Cl)c21

>  <ref_url>  (143) 
None

$$$$
BPSLHNPLDBUGMH-UHFFFAOYSA-N
     RDKit          3D

 24 26  0  0  0  0  0  0  0  0999 V2000
   23.9579   13.6697   11.7466 C   0  0  0  0  0  0  0  0  0  0  0  0
   22.9137   12.9806   11.0634 N   0  0  0  0  0  0  0  0  0  0  0  0
   23.1666   12.0756   10.0246 C   0  0  0  0  0  0  0  0  0  0  0  0
   24.1939   11.9272    9.4008 O   0  0  0  0  0  0  0  0  0  0  0  0
   21.9932   11.3794    9.8065 N   0  0  0  0  0  0  0  0  0  0  0  0
   21.0083   11.9025   10.6138 C   0  0  0  0  0  0  0  0  0  0  0  0
   19.6878   11.5515   10.6225 C   0  0  0  0  0  0  0  0  0  0  0  0
   18.8444   12.3159   11.4265 C   0  0  0  0  0  0  0  0  0  0  0  0
   17.4152   11.9473   11.5828 C   0  0  0  0  0  0  0  0  0  0  0  0
   16.7562   12.5080   12.4466 O   0  0  0  0  0  0  0  0  0  0  0  0
   16.9525   10.9861   10.7185 N   0  0  0  0  0  0  0  0  0  0  0  0
   15.9483   10.0335   10.9797 C   0  0  0  0  0  0  0  0  0  0  0  0
   15.5037    9.2746    9.8834 C   0  0  0  0  0  0  0  0  0  0  0  0
   15.9982    9.4873    8.6011 N   0  0  0  0  0  0  0  0  0  0  0  0
   14.7244    8.1356   10.0947 C   0  0  0  0  0  0  0  0  0  0  0  0
   14.3289    7.7824   11.3738 C   0  0  0  0  0  0  0  0  0  0  0  0
   14.6803    8.6034   12.4363 C   0  0  0  0  0  0  0  0  0  0  0  0
   14.1842    8.3342   13.6504 F   0  0  0  0  0  0  0  0  0  0  0  0
   15.4849    9.7173   12.2545 C   0  0  0  0  0  0  0  0  0  0  0  0
   15.8824   10.3855   13.3432 F   0  0  0  0  0  0  0  0  0  0  0  0
   19.3658   13.3668   12.2195 C   0  0  0  0  0  0  0  0  0  0  0  0
   20.7356   13.6610   12.2241 C   0  0  0  0  0  0  0  0  0  0  0  0
   21.2910   14.9617   13.1917 Cl  0  0  0  0  0  0  0  0  0  0  0  0
   21.5521   12.9209   11.3959 C   0  0  0  0  0  0  0  0  0  0  0  0
  1  2  1  0
  2  3  1  0
  3  4  2  0
  3  5  1  0
  5  6  1  0
  6  7  2  0
  7  8  1  0
  8  9  1  0
  9 10  2  0
  9 11  1  0
 11 12  1  0
 12 13  2  0
 13 14  1  0
 13 15  1  0
 15 16  2  0
 16 17  1  0
 17 18  1  0
 17 19  2  0
 19 20  1  0
  8 21  2  0
 21 22  1  0
 22 23  1  0
 22 24  2  0
 24  2  1  0
 24  6  1  0
 19 12  1  0
M  END
>  <HIPPO ID>  (144) 
92525

>  <alias>  (144) 
None

>  <ref_mols>  (144) 
c0692a,c0894a

>  <submitter_email>  (144) 
None

>  <ref_pdb>  (144) 
c0270a

>  <inchikey>  (144) 
BPSLHNPLDBUGMH-UHFFFAOYSA-N

>  <generation_date>  (144) 
None

>  <original ID>  (144) 
BPSLHNPLDBUGMH-UHFFFAOYSA-N

>  <tags>  (144) 
[]

>  <exports>  (144) 
nan

>  <method>  (144) 
None

>  <submitter_name>  (144) 
None

>  <original SMILES>  (144) 
Cn1c(=O)[nH]c2cc(C(=O)Nc3c(N)ccc(F)c3F)cc(Cl)c21

>  <ref_url>  (144) 
None

$$$$
YKQCRTQSGURNEG-UHFFFAOYSA-N
     RDKit          3D

 24 26  0  0  0  0  0  0  0  0999 V2000
   24.2855   13.6942   11.5313 C   0  0  0  0  0  0  0  0  0  0  0  0
   23.1699   13.0719   10.8995 N   0  0  0  0  0  0  0  0  0  0  0  0
   23.3342   12.1714    9.8341 C   0  0  0  0  0  0  0  0  0  0  0  0
   24.3069   12.0253    9.1249 O   0  0  0  0  0  0  0  0  0  0  0  0
   22.1392   11.4864    9.7083 N   0  0  0  0  0  0  0  0  0  0  0  0
   21.2211   12.0246   10.5842 C   0  0  0  0  0  0  0  0  0  0  0  0
   19.8967   11.7047   10.6842 C   0  0  0  0  0  0  0  0  0  0  0  0
   19.1267   12.4943   11.5412 C   0  0  0  0  0  0  0  0  0  0  0  0
   17.7049   12.1656   11.7912 C   0  0  0  0  0  0  0  0  0  0  0  0
   17.1164   12.6738   12.7379 O   0  0  0  0  0  0  0  0  0  0  0  0
   17.1662   11.2605   10.9264 N   0  0  0  0  0  0  0  0  0  0  0  0
   16.1832   10.3046   11.1936 C   0  0  0  0  0  0  0  0  0  0  0  0
   15.6674    9.7335   10.0500 C   0  0  0  0  0  0  0  0  0  0  0  0
   14.7412    8.7217   10.1625 C   0  0  0  0  0  0  0  0  0  0  0  0
   13.5162    8.5977    8.5872 I   0  0  0  0  0  0  0  0  0  0  0  0
   14.5163    8.0810   11.3676 C   0  0  0  0  0  0  0  0  0  0  0  0
   13.5416    6.6586   11.4980 Cl  0  0  0  0  0  0  0  0  0  0  0  0
   15.0196    8.6656   12.5226 C   0  0  0  0  0  0  0  0  0  0  0  0
   15.7436    9.8642   12.4563 C   0  0  0  0  0  0  0  0  0  0  0  0
   16.2016   10.4164   13.6611 N   0  0  0  0  0  0  0  0  0  0  0  0
   19.7184   13.5213   12.3050 C   0  0  0  0  0  0  0  0  0  0  0  0
   21.0899   13.7807   12.2183 C   0  0  0  0  0  0  0  0  0  0  0  0
   21.7189   15.0719   13.1514 Cl  0  0  0  0  0  0  0  0  0  0  0  0
   21.8351   13.0295   11.3312 C   0  0  0  0  0  0  0  0  0  0  0  0
  1  2  1  0
  2  3  1  0
  3  4  2  0
  3  5  1  0
  5  6  1  0
  6  7  2  0
  7  8  1  0
  8  9  1  0
  9 10  2  0
  9 11  1  0
 11 12  1  0
 12 13  2  0
 13 14  1  0
 14 15  1  0
 14 16  2  0
 16 17  1  0
 16 18  1  0
 18 19  2  0
 19 20  1  0
  8 21  2  0
 21 22  1  0
 22 23  1  0
 22 24  2  0
 24  2  1  0
 24  6  1  0
 19 12  1  0
M  END
>  <HIPPO ID>  (145) 
92549

>  <alias>  (145) 
None

>  <ref_mols>  (145) 
c0692a,c0894a

>  <submitter_email>  (145) 
None

>  <ref_pdb>  (145) 
c0270a

>  <inchikey>  (145) 
YKQCRTQSGURNEG-UHFFFAOYSA-N

>  <generation_date>  (145) 
None

>  <original ID>  (145) 
YKQCRTQSGURNEG-UHFFFAOYSA-N

>  <tags>  (145) 
[]

>  <exports>  (145) 
nan

>  <method>  (145) 
None

>  <submitter_name>  (145) 
None

>  <original SMILES>  (145) 
Cn1c(=O)[nH]c2cc(C(=O)Nc3cc(I)c(Cl)cc3N)cc(Cl)c21

>  <ref_url>  (145) 
None

$$$$
PBHXBKGQKRSBBE-UHFFFAOYSA-N
     RDKit          3D

 24 26  0  0  0  0  0  0  0  0999 V2000
   24.2622   13.7147   11.5966 C   0  0  0  0  0  0  0  0  0  0  0  0
   23.1785   13.0746   10.9286 N   0  0  0  0  0  0  0  0  0  0  0  0
   23.3816   12.2147    9.8367 C   0  0  0  0  0  0  0  0  0  0  0  0
   24.3641   12.1226    9.1309 O   0  0  0  0  0  0  0  0  0  0  0  0
   22.2085   11.4999    9.6746 N   0  0  0  0  0  0  0  0  0  0  0  0
   21.2630   11.9871   10.5532 C   0  0  0  0  0  0  0  0  0  0  0  0
   19.9440   11.6363   10.6197 C   0  0  0  0  0  0  0  0  0  0  0  0
   19.1330   12.4012   11.4606 C   0  0  0  0  0  0  0  0  0  0  0  0
   17.6967   12.0723   11.6290 C   0  0  0  0  0  0  0  0  0  0  0  0
   17.0388   12.6526   12.4817 O   0  0  0  0  0  0  0  0  0  0  0  0
   17.2261   11.1288   10.7560 N   0  0  0  0  0  0  0  0  0  0  0  0
   16.2006   10.2168   10.9912 C   0  0  0  0  0  0  0  0  0  0  0  0
   15.6246    9.6869    9.8485 C   0  0  0  0  0  0  0  0  0  0  0  0
   14.6505    8.7209    9.9739 C   0  0  0  0  0  0  0  0  0  0  0  0
   13.5092    8.4868    8.5362 Br  0  0  0  0  0  0  0  0  0  0  0  0
   14.3523    8.1369   11.1888 C   0  0  0  0  0  0  0  0  0  0  0  0
   14.8620    8.7327   12.3252 C   0  0  0  0  0  0  0  0  0  0  0  0
   14.3903    8.3577   13.5217 F   0  0  0  0  0  0  0  0  0  0  0  0
   15.7749    9.7764   12.2448 C   0  0  0  0  0  0  0  0  0  0  0  0
   16.2872   10.2765   13.4046 O   0  0  0  0  0  0  0  0  0  0  0  0
   19.6859   13.4265   12.2572 C   0  0  0  0  0  0  0  0  0  0  0  0
   21.0554   13.7099   12.2154 C   0  0  0  0  0  0  0  0  0  0  0  0
   21.6381   14.9989   13.1821 Cl  0  0  0  0  0  0  0  0  0  0  0  0
   21.8370   12.9898   11.3334 C   0  0  0  0  0  0  0  0  0  0  0  0
  1  2  1  0
  2  3  1  0
  3  4  2  0
  3  5  1  0
  5  6  1  0
  6  7  2  0
  7  8  1  0
  8  9  1  0
  9 10  2  0
  9 11  1  0
 11 12  1  0
 12 13  2  0
 13 14  1  0
 14 15  1  0
 14 16  2  0
 16 17  1  0
 17 18  1  0
 17 19  2  0
 19 20  1  0
  8 21  2  0
 21 22  1  0
 22 23  1  0
 22 24  2  0
 24  2  1  0
 24  6  1  0
 19 12  1  0
M  END
>  <HIPPO ID>  (146) 
92806

>  <alias>  (146) 
None

>  <ref_mols>  (146) 
c0692a,c0894a

>  <submitter_email>  (146) 
None

>  <ref_pdb>  (146) 
c0270a

>  <inchikey>  (146) 
PBHXBKGQKRSBBE-UHFFFAOYSA-N

>  <generation_date>  (146) 
None

>  <original ID>  (146) 
PBHXBKGQKRSBBE-UHFFFAOYSA-N

>  <tags>  (146) 
[]

>  <exports>  (146) 
nan

>  <method>  (146) 
None

>  <submitter_name>  (146) 
None

>  <original SMILES>  (146) 
Cn1c(=O)[nH]c2cc(C(=O)Nc3cc(Br)cc(F)c3O)cc(Cl)c21

>  <ref_url>  (146) 
None

$$$$
NIWOWNYSZVSEGQ-UHFFFAOYSA-N
     RDKit          3D

 24 26  0  0  0  0  0  0  0  0999 V2000
   24.0056   13.7114   11.6858 C   0  0  0  0  0  0  0  0  0  0  0  0
   22.9708   13.0216   10.9898 N   0  0  0  0  0  0  0  0  0  0  0  0
   23.2360   12.1709    9.9055 C   0  0  0  0  0  0  0  0  0  0  0  0
   24.2411   12.1130    9.2281 O   0  0  0  0  0  0  0  0  0  0  0  0
   22.0900   11.4208    9.7063 N   0  0  0  0  0  0  0  0  0  0  0  0
   21.0965   11.8828   10.5456 C   0  0  0  0  0  0  0  0  0  0  0  0
   19.7815   11.4992   10.5558 C   0  0  0  0  0  0  0  0  0  0  0  0
   18.9189   12.2339   11.3679 C   0  0  0  0  0  0  0  0  0  0  0  0
   17.4919   11.8421   11.5014 C   0  0  0  0  0  0  0  0  0  0  0  0
   16.8378   12.3157   12.4207 O   0  0  0  0  0  0  0  0  0  0  0  0
   17.0174   10.9677   10.5496 N   0  0  0  0  0  0  0  0  0  0  0  0
   15.9857   10.0332   10.7212 C   0  0  0  0  0  0  0  0  0  0  0  0
   15.4773    9.4515    9.5572 C   0  0  0  0  0  0  0  0  0  0  0  0
   14.5881    8.3842    9.6273 C   0  0  0  0  0  0  0  0  0  0  0  0
   14.2580    7.8476   10.8622 C   0  0  0  0  0  0  0  0  0  0  0  0
   13.1973    6.2850   10.9315 Br  0  0  0  0  0  0  0  0  0  0  0  0
   14.6959    8.4749   12.0248 C   0  0  0  0  0  0  0  0  0  0  0  0
   14.2638    8.0616   13.2251 F   0  0  0  0  0  0  0  0  0  0  0  0
   15.5443    9.5699   11.9599 C   0  0  0  0  0  0  0  0  0  0  0  0
   16.0083   10.0747   13.1103 F   0  0  0  0  0  0  0  0  0  0  0  0
   19.4191   13.2782   12.1821 C   0  0  0  0  0  0  0  0  0  0  0  0
   20.7834   13.6019   12.1918 C   0  0  0  0  0  0  0  0  0  0  0  0
   21.3040   14.9042   13.1775 Cl  0  0  0  0  0  0  0  0  0  0  0  0
   21.6168   12.9010   11.3440 C   0  0  0  0  0  0  0  0  0  0  0  0
  1  2  1  0
  2  3  1  0
  3  4  2  0
  3  5  1  0
  5  6  1  0
  6  7  2  0
  7  8  1  0
  8  9  1  0
  9 10  2  0
  9 11  1  0
 11 12  1  0
 12 13  2  0
 13 14  1  0
 14 15  2  0
 15 16  1  0
 15 17  1  0
 17 18  1  0
 17 19  2  0
 19 20  1  0
  8 21  2  0
 21 22  1  0
 22 23  1  0
 22 24  2  0
 24  2  1  0
 24  6  1  0
 19 12  1  0
M  END
>  <HIPPO ID>  (147) 
92813

>  <alias>  (147) 
None

>  <ref_mols>  (147) 
c0692a,c0894a

>  <submitter_email>  (147) 
None

>  <ref_pdb>  (147) 
c0270a

>  <inchikey>  (147) 
NIWOWNYSZVSEGQ-UHFFFAOYSA-N

>  <generation_date>  (147) 
None

>  <original ID>  (147) 
NIWOWNYSZVSEGQ-UHFFFAOYSA-N

>  <tags>  (147) 
[]

>  <exports>  (147) 
nan

>  <method>  (147) 
None

>  <submitter_name>  (147) 
None

>  <original SMILES>  (147) 
Cn1c(=O)[nH]c2cc(C(=O)Nc3ccc(Br)c(F)c3F)cc(Cl)c21

>  <ref_url>  (147) 
None

$$$$
GNYDXEOSEGKLJK-UHFFFAOYSA-N
     RDKit          3D

 24 26  0  0  0  0  0  0  0  0999 V2000
   15.6793   10.5064   13.5607 C   0  0  0  0  0  0  0  0  0  0  0  0
   15.4433    9.7230   12.3080 C   0  0  0  0  0  0  0  0  0  0  0  0
   14.6501    8.5745   12.4253 C   0  0  0  0  0  0  0  0  0  0  0  0
   14.1012    8.2699   13.6103 F   0  0  0  0  0  0  0  0  0  0  0  0
   14.3354    7.7588   11.3476 C   0  0  0  0  0  0  0  0  0  0  0  0
   14.7432    8.1364   10.0865 C   0  0  0  0  0  0  0  0  0  0  0  0
   15.5229    9.2783    9.9168 C   0  0  0  0  0  0  0  0  0  0  0  0
   16.0095    9.5236    8.6372 N   0  0  0  0  0  0  0  0  0  0  0  0
   15.9495   10.0309   11.0367 C   0  0  0  0  0  0  0  0  0  0  0  0
   16.9905   10.9476   10.7652 N   0  0  0  0  0  0  0  0  0  0  0  0
   17.4608   11.9818   11.5319 C   0  0  0  0  0  0  0  0  0  0  0  0
   16.7899   12.6663   12.2926 O   0  0  0  0  0  0  0  0  0  0  0  0
   18.9098   12.2941   11.3963 C   0  0  0  0  0  0  0  0  0  0  0  0
   19.4483   13.3332   12.1957 C   0  0  0  0  0  0  0  0  0  0  0  0
   20.8203   13.6217   12.1944 C   0  0  0  0  0  0  0  0  0  0  0  0
   21.3773   14.9204   13.1645 Cl  0  0  0  0  0  0  0  0  0  0  0  0
   21.6269   12.8948   11.3447 C   0  0  0  0  0  0  0  0  0  0  0  0
   21.0731   11.8782   10.5668 C   0  0  0  0  0  0  0  0  0  0  0  0
   19.7489   11.5253   10.5916 C   0  0  0  0  0  0  0  0  0  0  0  0
   22.0419   11.3907    9.7142 N   0  0  0  0  0  0  0  0  0  0  0  0
   23.1964   12.1393    9.8669 C   0  0  0  0  0  0  0  0  0  0  0  0
   24.1691   12.0851    9.1437 O   0  0  0  0  0  0  0  0  0  0  0  0
   22.9741   12.9918   10.9593 N   0  0  0  0  0  0  0  0  0  0  0  0
   24.0339   13.6863   11.6115 C   0  0  0  0  0  0  0  0  0  0  0  0
  1  2  1  0
  2  3  2  0
  3  4  1  0
  3  5  1  0
  5  6  2  0
  6  7  1  0
  7  8  1  0
  7  9  2  0
  9 10  1  0
 10 11  1  0
 11 12  2  0
 11 13  1  0
 13 14  2  0
 14 15  1  0
 15 16  1  0
 15 17  2  0
 17 18  1  0
 18 19  2  0
 18 20  1  0
 20 21  1  0
 21 22  2  0
 21 23  1  0
 23 24  1  0
  9  2  1  0
 19 13  1  0
 23 17  1  0
M  END
>  <HIPPO ID>  (148) 
92932

>  <alias>  (148) 
None

>  <ref_mols>  (148) 
c0692a,c0894a

>  <submitter_email>  (148) 
None

>  <ref_pdb>  (148) 
c0270a

>  <inchikey>  (148) 
GNYDXEOSEGKLJK-UHFFFAOYSA-N

>  <generation_date>  (148) 
None

>  <original ID>  (148) 
GNYDXEOSEGKLJK-UHFFFAOYSA-N

>  <tags>  (148) 
[]

>  <exports>  (148) 
nan

>  <method>  (148) 
None

>  <submitter_name>  (148) 
None

>  <original SMILES>  (148) 
Cc1c(F)ccc(N)c1NC(=O)c1cc(Cl)c2c(c1)[nH]c(=O)n2C

>  <ref_url>  (148) 
None

$$$$
QZCCJKOYPOGGLD-UHFFFAOYSA-N
     RDKit          3D

 24 26  0  0  0  0  0  0  0  0999 V2000
   17.1569   12.2961   12.6538 O   0  0  0  0  0  0  0  0  0  0  0  0
   17.7415   11.9233   11.6442 C   0  0  0  0  0  0  0  0  0  0  0  0
   17.2273   11.0741   10.6948 N   0  0  0  0  0  0  0  0  0  0  0  0
   16.1860   10.1714   10.8980 C   0  0  0  0  0  0  0  0  0  0  0  0
   15.6013    9.6309    9.7622 C   0  0  0  0  0  0  0  0  0  0  0  0
   14.6174    8.6735    9.9029 C   0  0  0  0  0  0  0  0  0  0  0  0
   13.5794    8.3882    8.5897 Cl  0  0  0  0  0  0  0  0  0  0  0  0
   14.3218    8.1214   11.1380 C   0  0  0  0  0  0  0  0  0  0  0  0
   14.8298    8.7516   12.2754 C   0  0  0  0  0  0  0  0  0  0  0  0
   14.2291    8.4606   13.5804 N   0  0  0  0  0  4  0  0  0  0  0  0
   13.5384    7.4356   13.6750 O   0  0  0  0  0  0  0  0  0  0  0  0
   14.3755    9.2911   14.4861 O   0  0  0  0  0  1  0  0  0  0  0  0
   15.7572    9.7828   12.1655 C   0  0  0  0  0  0  0  0  0  0  0  0
   19.1341   12.3681   11.4116 C   0  0  0  0  0  0  0  0  0  0  0  0
   19.5944   13.4950   12.0985 C   0  0  0  0  0  0  0  0  0  0  0  0
   20.9171   13.8924   11.9419 C   0  0  0  0  0  0  0  0  0  0  0  0
   21.5546   15.2705   12.7129 Cl  0  0  0  0  0  0  0  0  0  0  0  0
   21.7787   13.1950   11.0826 C   0  0  0  0  0  0  0  0  0  0  0  0
   23.0486   13.4752   10.6385 N   0  0  0  0  0  0  0  0  0  0  0  0
   23.2933   12.5496    9.7540 C   0  0  0  0  0  0  0  0  0  0  0  0
   24.2932   12.5726    8.9107 O   0  0  0  0  0  0  0  0  0  0  0  0
   22.3414   11.5910    9.7062 N   0  0  0  0  0  0  0  0  0  0  0  0
   21.2986   12.0355   10.4754 C   0  0  0  0  0  0  0  0  0  0  0  0
   19.9930   11.5811   10.6237 C   0  0  0  0  0  0  0  0  0  0  0  0
  1  2  2  0
  2  3  1  0
  3  4  1  0
  4  5  2  0
  5  6  1  0
  6  7  1  0
  6  8  2  0
  8  9  1  0
  9 10  1  0
 10 11  2  0
 10 12  1  0
  9 13  2  0
  2 14  1  0
 14 15  2  0
 15 16  1  0
 16 17  1  0
 16 18  2  0
 18 19  1  0
 19 20  2  0
 20 21  1  0
 20 22  1  0
 22 23  1  0
 23 24  2  0
 13  4  1  0
 24 14  1  0
 23 18  1  0
M  CHG  2  10   1  12  -1
M  END
>  <HIPPO ID>  (149) 
93300

>  <alias>  (149) 
None

>  <ref_mols>  (149) 
c0692a,c0894a

>  <submitter_email>  (149) 
None

>  <ref_pdb>  (149) 
c0270a

>  <inchikey>  (149) 
QZCCJKOYPOGGLD-UHFFFAOYSA-N

>  <generation_date>  (149) 
None

>  <original ID>  (149) 
QZCCJKOYPOGGLD-UHFFFAOYSA-N

>  <tags>  (149) 
[]

>  <exports>  (149) 
nan

>  <method>  (149) 
None

>  <submitter_name>  (149) 
None

>  <original SMILES>  (149) 
O=C(Nc1cc(Cl)cc([N+](=O)[O-])c1)c1cc(Cl)c2nc(O)[nH]c2c1

>  <ref_url>  (149) 
None

$$$$
UTISFQLHWCCWCU-UHFFFAOYSA-N
     RDKit          3D

 25 27  0  0  0  0  0  0  0  0999 V2000
   24.1393   13.6896   11.4808 C   0  0  0  0  0  0  0  0  0  0  0  0
   23.0324   13.0194   10.8848 N   0  0  0  0  0  0  0  0  0  0  0  0
   23.1953   12.1276    9.8145 C   0  0  0  0  0  0  0  0  0  0  0  0
   24.1304   12.0205    9.0539 O   0  0  0  0  0  0  0  0  0  0  0  0
   22.0317   11.3971    9.7216 N   0  0  0  0  0  0  0  0  0  0  0  0
   21.1086   11.9315   10.5855 C   0  0  0  0  0  0  0  0  0  0  0  0
   19.7919   11.5952   10.6550 C   0  0  0  0  0  0  0  0  0  0  0  0
   19.0011   12.3795   11.4880 C   0  0  0  0  0  0  0  0  0  0  0  0
   17.5960   11.9890   11.7044 C   0  0  0  0  0  0  0  0  0  0  0  0
   17.0311   12.3449   12.7295 O   0  0  0  0  0  0  0  0  0  0  0  0
   17.0683   11.1749   10.7335 N   0  0  0  0  0  0  0  0  0  0  0  0
   16.0811   10.2171   10.9301 C   0  0  0  0  0  0  0  0  0  0  0  0
   15.5271    9.6630    9.7863 C   0  0  0  0  0  0  0  0  0  0  0  0
   14.5879    8.6615    9.9145 C   0  0  0  0  0  0  0  0  0  0  0  0
   13.5685    8.3584    8.5924 Cl  0  0  0  0  0  0  0  0  0  0  0  0
   14.3093    8.0866   11.1440 C   0  0  0  0  0  0  0  0  0  0  0  0
   14.7947    8.7238   12.2889 C   0  0  0  0  0  0  0  0  0  0  0  0
   14.1897    8.4147   13.5871 N   0  0  0  0  0  4  0  0  0  0  0  0
   13.5533    7.3557   13.6809 O   0  0  0  0  0  0  0  0  0  0  0  0
   14.2694    9.2668   14.4821 O   0  0  0  0  0  1  0  0  0  0  0  0
   15.6791    9.7924   12.1927 C   0  0  0  0  0  0  0  0  0  0  0  0
   19.5622   13.4195   12.2607 C   0  0  0  0  0  0  0  0  0  0  0  0
   20.9328   13.7019   12.1945 C   0  0  0  0  0  0  0  0  0  0  0  0
   21.5328   15.0082   13.1260 Cl  0  0  0  0  0  0  0  0  0  0  0  0
   21.7009   12.9553   11.3243 C   0  0  0  0  0  0  0  0  0  0  0  0
  1  2  1  0
  2  3  1  0
  3  4  2  0
  3  5  1  0
  5  6  1  0
  6  7  2  0
  7  8  1  0
  8  9  1  0
  9 10  2  0
  9 11  1  0
 11 12  1  0
 12 13  2  0
 13 14  1  0
 14 15  1  0
 14 16  2  0
 16 17  1  0
 17 18  1  0
 18 19  2  0
 18 20  1  0
 17 21  2  0
  8 22  2  0
 22 23  1  0
 23 24  1  0
 23 25  2  0
 25  2  1  0
 25  6  1  0
 21 12  1  0
M  CHG  2  18   1  20  -1
M  END
>  <HIPPO ID>  (150) 
93464

>  <alias>  (150) 
None

>  <ref_mols>  (150) 
c0692a,c0894a

>  <submitter_email>  (150) 
None

>  <ref_pdb>  (150) 
c0270a

>  <inchikey>  (150) 
UTISFQLHWCCWCU-UHFFFAOYSA-N

>  <generation_date>  (150) 
None

>  <original ID>  (150) 
UTISFQLHWCCWCU-UHFFFAOYSA-N

>  <tags>  (150) 
[]

>  <exports>  (150) 
nan

>  <method>  (150) 
None

>  <submitter_name>  (150) 
None

>  <original SMILES>  (150) 
Cn1c(=O)[nH]c2cc(C(=O)Nc3cc(Cl)cc([N+](=O)[O-])c3)cc(Cl)c21

>  <ref_url>  (150) 
None

$$$$
RTJCGDWXOXNOJE-UHFFFAOYSA-N
     RDKit          3D

 25 28  0  0  0  0  0  0  0  0999 V2000
   23.9116   13.6783   11.7961 C   0  0  0  0  0  0  0  0  0  0  0  0
   22.8983   12.9483   11.1100 N   0  0  0  0  0  0  0  0  0  0  0  0
   23.1791   12.0792   10.0472 C   0  0  0  0  0  0  0  0  0  0  0  0
   24.2113   11.9827    9.4190 O   0  0  0  0  0  0  0  0  0  0  0  0
   22.0215   11.3614    9.8057 N   0  0  0  0  0  0  0  0  0  0  0  0
   21.0153   11.8516   10.6109 C   0  0  0  0  0  0  0  0  0  0  0  0
   19.6945   11.4985   10.5788 C   0  0  0  0  0  0  0  0  0  0  0  0
   18.8211   12.2694   11.3443 C   0  0  0  0  0  0  0  0  0  0  0  0
   17.3647   11.9767   11.3605 C   0  0  0  0  0  0  0  0  0  0  0  0
   16.6060   12.7424   11.9362 O   0  0  0  0  0  0  0  0  0  0  0  0
   16.9713   10.8984   10.6196 N   0  0  0  0  0  0  0  0  0  0  0  0
   15.9125   10.0102   10.8548 C   0  0  0  0  0  0  0  0  0  0  0  0
   15.4501    9.3757    9.6823 C   0  0  0  0  0  0  0  0  0  0  0  0
   14.5932    8.2910    9.7218 C   0  0  0  0  0  0  0  0  0  0  0  0
   14.2673    7.7089   10.9309 C   0  0  0  0  0  0  0  0  0  0  0  0
   14.6687    8.3779   12.0897 C   0  0  0  0  0  0  0  0  0  0  0  0
   14.3988    8.0622   13.3915 N   0  0  0  0  0  0  0  0  0  0  0  0
   14.7976    8.9770   14.2652 N   0  0  0  0  0  0  0  0  0  0  0  0
   15.4223    9.8809   13.5046 C   0  0  0  0  0  0  0  0  0  0  0  0
   16.1249   11.3667   14.4068 Br  0  0  0  0  0  0  0  0  0  0  0  0
   15.4101    9.5706   12.1106 C   0  0  0  0  0  0  0  0  0  0  0  0
   19.3161   13.3108   12.1660 C   0  0  0  0  0  0  0  0  0  0  0  0
   20.6873   13.5974   12.2260 C   0  0  0  0  0  0  0  0  0  0  0  0
   21.2117   14.8952   13.2158 Cl  0  0  0  0  0  0  0  0  0  0  0  0
   21.5313   12.8657   11.4165 C   0  0  0  0  0  0  0  0  0  0  0  0
  1  2  1  0
  2  3  1  0
  3  4  2  0
  3  5  1  0
  5  6  1  0
  6  7  2  0
  7  8  1  0
  8  9  1  0
  9 10  2  0
  9 11  1  0
 11 12  1  0
 12 13  2  0
 13 14  1  0
 14 15  2  0
 15 16  1  0
 16 17  1  0
 17 18  1  0
 18 19  2  0
 19 20  1  0
 19 21  1  0
  8 22  2  0
 22 23  1  0
 23 24  1  0
 23 25  2  0
 25  2  1  0
 25  6  1  0
 21 12  1  0
 21 16  2  0
M  END
>  <HIPPO ID>  (151) 
93581

>  <alias>  (151) 
None

>  <ref_mols>  (151) 
c0692a,c0894a

>  <submitter_email>  (151) 
None

>  <ref_pdb>  (151) 
c0270a

>  <inchikey>  (151) 
RTJCGDWXOXNOJE-UHFFFAOYSA-N

>  <generation_date>  (151) 
None

>  <original ID>  (151) 
RTJCGDWXOXNOJE-UHFFFAOYSA-N

>  <tags>  (151) 
[]

>  <exports>  (151) 
nan

>  <method>  (151) 
None

>  <submitter_name>  (151) 
None

>  <original SMILES>  (151) 
Cn1c(=O)[nH]c2cc(C(=O)Nc3cccc4[nH]nc(Br)c34)cc(Cl)c21

>  <ref_url>  (151) 
None

$$$$
LYUZPZNVBIAHDD-UHFFFAOYSA-N
     RDKit          3D

 26 28  0  0  0  0  0  0  0  0999 V2000
   23.6594   13.7016   11.0220 C   0  0  0  0  0  0  0  0  0  0  0  0
   22.6447   12.7178   10.8747 N   0  0  0  0  0  0  0  0  0  0  0  0
   22.7526   11.7449    9.8665 C   0  0  0  0  0  0  0  0  0  0  0  0
   23.6384   11.6255    9.0484 O   0  0  0  0  0  0  0  0  0  0  0  0
   21.5727   11.0193    9.8897 N   0  0  0  0  0  0  0  0  0  0  0  0
   20.6722   11.6910   10.6807 C   0  0  0  0  0  0  0  0  0  0  0  0
   19.3354   11.4258   10.7500 C   0  0  0  0  0  0  0  0  0  0  0  0
   18.5664   12.2970   11.5131 C   0  0  0  0  0  0  0  0  0  0  0  0
   17.1454   11.9591   11.7933 C   0  0  0  0  0  0  0  0  0  0  0  0
   16.5683   12.5574   12.6875 O   0  0  0  0  0  0  0  0  0  0  0  0
   16.6073   10.9633   11.0115 N   0  0  0  0  0  0  0  0  0  0  0  0
   15.7236    9.9253   11.4097 C   0  0  0  0  0  0  0  0  0  0  0  0
   15.2660    9.0103   10.4405 C   0  0  0  0  0  0  0  0  0  0  0  0
   15.4222    9.3060    9.0391 C   0  0  0  0  0  0  0  0  0  0  0  0
   14.5073    9.3578    8.2546 O   0  0  0  0  0  0  0  0  0  0  0  0
   16.7063    9.5533    8.8319 O   0  0  0  0  0  0  0  0  0  0  0  0
   14.5606    7.8429   10.7384 C   0  0  0  0  0  0  0  0  0  0  0  0
   14.2608    7.5856   12.0595 C   0  0  0  0  0  0  0  0  0  0  0  0
   14.6081    8.5320   13.0231 C   0  0  0  0  0  0  0  0  0  0  0  0
   14.1260    8.3759   14.2595 F   0  0  0  0  0  0  0  0  0  0  0  0
   15.3502    9.6721   12.7178 C   0  0  0  0  0  0  0  0  0  0  0  0
   15.7271   10.4673   13.7224 F   0  0  0  0  0  0  0  0  0  0  0  0
   19.1730   13.4019   12.1622 C   0  0  0  0  0  0  0  0  0  0  0  0
   20.5548   13.6450   12.0530 C   0  0  0  0  0  0  0  0  0  0  0  0
   21.2137   15.0247   12.8297 Cl  0  0  0  0  0  0  0  0  0  0  0  0
   21.3043   12.7691   11.2960 C   0  0  0  0  0  0  0  0  0  0  0  0
  1  2  1  0
  2  3  1  0
  3  4  2  0
  3  5  1  0
  5  6  1  0
  6  7  2  0
  7  8  1  0
  8  9  1  0
  9 10  2  0
  9 11  1  0
 11 12  1  0
 12 13  2  0
 13 14  1  0
 14 15  2  0
 14 16  1  0
 13 17  1  0
 17 18  2  0
 18 19  1  0
 19 20  1  0
 19 21  2  0
 21 22  1  0
  8 23  2  0
 23 24  1  0
 24 25  1  0
 24 26  2  0
 26  2  1  0
 26  6  1  0
 21 12  1  0
M  END
>  <HIPPO ID>  (152) 
93790

>  <alias>  (152) 
None

>  <ref_mols>  (152) 
c0692a,c0894a

>  <submitter_email>  (152) 
None

>  <ref_pdb>  (152) 
c0270a

>  <inchikey>  (152) 
LYUZPZNVBIAHDD-UHFFFAOYSA-N

>  <generation_date>  (152) 
None

>  <original ID>  (152) 
LYUZPZNVBIAHDD-UHFFFAOYSA-N

>  <tags>  (152) 
[]

>  <exports>  (152) 
nan

>  <method>  (152) 
None

>  <submitter_name>  (152) 
None

>  <original SMILES>  (152) 
Cn1c(=O)[nH]c2cc(C(=O)Nc3c(C(=O)O)ccc(F)c3F)cc(Cl)c21

>  <ref_url>  (152) 
None

$$$$
MHRALLCDYRARRT-UHFFFAOYSA-N
     RDKit          3D

 26 28  0  0  0  0  0  0  0  0999 V2000
   24.2220   13.6952   11.4955 C   0  0  0  0  0  0  0  0  0  0  0  0
   23.1317   13.0311   10.8629 N   0  0  0  0  0  0  0  0  0  0  0  0
   23.3133   12.1915    9.7531 C   0  0  0  0  0  0  0  0  0  0  0  0
   24.2545   12.1491    8.9887 O   0  0  0  0  0  0  0  0  0  0  0  0
   22.1574   11.4419    9.6349 N   0  0  0  0  0  0  0  0  0  0  0  0
   21.2186   11.9202   10.5242 C   0  0  0  0  0  0  0  0  0  0  0  0
   19.8962   11.5704   10.5863 C   0  0  0  0  0  0  0  0  0  0  0  0
   19.0925   12.3421   11.4203 C   0  0  0  0  0  0  0  0  0  0  0  0
   17.6571   12.0288   11.6017 C   0  0  0  0  0  0  0  0  0  0  0  0
   17.0664   12.5901   12.5137 O   0  0  0  0  0  0  0  0  0  0  0  0
   17.1096   11.1370   10.7115 N   0  0  0  0  0  0  0  0  0  0  0  0
   16.0541   10.2290   10.9178 C   0  0  0  0  0  0  0  0  0  0  0  0
   15.5276    9.6839    9.7520 C   0  0  0  0  0  0  0  0  0  0  0  0
   14.5890    8.6733    9.8323 C   0  0  0  0  0  0  0  0  0  0  0  0
   13.5583    8.4270    8.5087 Cl  0  0  0  0  0  0  0  0  0  0  0  0
   14.3370    8.0185   11.0245 C   0  0  0  0  0  0  0  0  0  0  0  0
   14.7954    8.5970   12.2013 C   0  0  0  0  0  0  0  0  0  0  0  0
   14.2493    7.9111   13.6937 Cl  0  0  0  0  0  0  0  0  0  0  0  0
   15.5629    9.7637   12.1467 C   0  0  0  0  0  0  0  0  0  0  0  0
   15.6972   10.5206   13.3820 C   0  0  0  0  0  0  0  0  0  0  0  0
   16.3930   10.2536   14.3361 O   0  0  0  0  0  0  0  0  0  0  0  0
   14.8681   11.5711   13.3110 O   0  0  0  0  0  0  0  0  0  0  0  0
   19.6555   13.3682   12.2168 C   0  0  0  0  0  0  0  0  0  0  0  0
   21.0246   13.6517   12.1768 C   0  0  0  0  0  0  0  0  0  0  0  0
   21.6056   14.9466   13.1366 Cl  0  0  0  0  0  0  0  0  0  0  0  0
   21.7996   12.9295   11.2944 C   0  0  0  0  0  0  0  0  0  0  0  0
  1  2  1  0
  2  3  1  0
  3  4  2  0
  3  5  1  0
  5  6  1  0
  6  7  2  0
  7  8  1  0
  8  9  1  0
  9 10  2  0
  9 11  1  0
 11 12  1  0
 12 13  2  0
 13 14  1  0
 14 15  1  0
 14 16  2  0
 16 17  1  0
 17 18  1  0
 17 19  2  0
 19 20  1  0
 20 21  2  0
 20 22  1  0
  8 23  2  0
 23 24  1  0
 24 25  1  0
 24 26  2  0
 26  2  1  0
 26  6  1  0
 19 12  1  0
M  END
>  <HIPPO ID>  (153) 
93809

>  <alias>  (153) 
None

>  <ref_mols>  (153) 
c0692a,c0894a

>  <submitter_email>  (153) 
None

>  <ref_pdb>  (153) 
c0270a

>  <inchikey>  (153) 
MHRALLCDYRARRT-UHFFFAOYSA-N

>  <generation_date>  (153) 
None

>  <original ID>  (153) 
MHRALLCDYRARRT-UHFFFAOYSA-N

>  <tags>  (153) 
[]

>  <exports>  (153) 
nan

>  <method>  (153) 
None

>  <submitter_name>  (153) 
None

>  <original SMILES>  (153) 
Cn1c(=O)[nH]c2cc(C(=O)Nc3cc(Cl)cc(Cl)c3C(=O)O)cc(Cl)c21

>  <ref_url>  (153) 
None

$$$$
SDKGZCPPAHYKQJ-UHFFFAOYSA-N
     RDKit          3D

 19 20  0  0  0  0  0  0  0  0999 V2000
   21.7662   11.2503   10.7192 C   0  0  0  0  0  0  0  0  0  0  0  0
   20.3633   11.5458   10.7259 O   0  0  0  0  0  0  0  0  0  0  0  0
   19.9839   12.7101   11.3383 C   0  0  0  0  0  0  0  0  0  0  0  0
   20.8689   13.7730   11.5821 C   0  0  0  0  0  0  0  0  0  0  0  0
   20.4401   14.9022   12.2900 C   0  0  0  0  0  0  0  0  0  0  0  0
   21.6394   16.2686   12.7750 Br  0  0  0  0  0  0  0  0  0  0  0  0
   19.1271   15.0401   12.7033 C   0  0  0  0  0  0  0  0  0  0  0  0
   18.2403   14.0159   12.4466 C   0  0  0  0  0  0  0  0  0  0  0  0
   18.6564   12.8432   11.7843 C   0  0  0  0  0  0  0  0  0  0  0  0
   17.6413   11.7768   11.8873 C   0  0  0  0  0  0  0  0  0  0  0  0
   17.0730   11.7217   12.9795 O   0  0  0  0  0  0  0  0  0  0  0  0
   17.3236   10.9941   10.8002 N   0  0  0  0  0  0  0  0  0  0  0  0
   16.2998   10.0106   10.8066 C   0  0  0  0  0  0  0  0  0  0  0  0
   15.7852    9.5855    9.5841 C   0  0  0  0  0  0  0  0  0  0  0  0
   14.8070    8.5968    9.5198 C   0  0  0  0  0  0  0  0  0  0  0  0
   14.3994    7.9605   10.6775 C   0  0  0  0  0  0  0  0  0  0  0  0
   13.5077    6.9330   10.6277 O   0  0  0  0  0  0  0  0  0  0  0  0
   14.8757    8.3744   11.9085 C   0  0  0  0  0  0  0  0  0  0  0  0
   15.7951    9.4224   11.9729 C   0  0  0  0  0  0  0  0  0  0  0  0
  1  2  1  0
  2  3  1  0
  3  4  2  0
  4  5  1  0
  5  6  1  0
  5  7  2  0
  7  8  1  0
  8  9  2  0
  9 10  1  0
 10 11  2  0
 10 12  1  0
 12 13  1  0
 13 14  2  0
 14 15  1  0
 15 16  2  0
 16 17  1  0
 16 18  1  0
 18 19  2  0
  9  3  1  0
 19 13  1  0
M  END
>  <HIPPO ID>  (154) 
93812

>  <alias>  (154) 
None

>  <ref_mols>  (154) 
c0935a,c1118a

>  <submitter_email>  (154) 
None

>  <ref_pdb>  (154) 
c0270a

>  <inchikey>  (154) 
SDKGZCPPAHYKQJ-UHFFFAOYSA-N

>  <generation_date>  (154) 
None

>  <original ID>  (154) 
SDKGZCPPAHYKQJ-UHFFFAOYSA-N

>  <tags>  (154) 
[]

>  <exports>  (154) 
nan

>  <method>  (154) 
None

>  <submitter_name>  (154) 
None

>  <original SMILES>  (154) 
COc1cc(Br)ccc1C(=O)Nc1ccc(O)cc1

>  <ref_url>  (154) 
None

$$$$
OCVOCNVCDVNCJL-UHFFFAOYSA-N
     RDKit          3D

 19 20  0  0  0  0  0  0  0  0999 V2000
   21.8856   11.2819   10.5264 C   0  0  0  0  0  0  0  0  0  0  0  0
   20.4659   11.4559   10.6320 O   0  0  0  0  0  0  0  0  0  0  0  0
   20.0465   12.6533   11.1397 C   0  0  0  0  0  0  0  0  0  0  0  0
   20.8711   13.7873   11.1794 C   0  0  0  0  0  0  0  0  0  0  0  0
   20.4244   14.9828   11.7516 C   0  0  0  0  0  0  0  0  0  0  0  0
   19.1333   15.0928   12.2436 C   0  0  0  0  0  0  0  0  0  0  0  0
   18.6753   16.2475   12.8550 N   0  0  0  0  0  0  0  0  0  0  0  0
   18.3390   13.9650   12.2624 C   0  0  0  0  0  0  0  0  0  0  0  0
   18.7549   12.7624   11.6729 C   0  0  0  0  0  0  0  0  0  0  0  0
   17.7341   11.7109   11.8396 C   0  0  0  0  0  0  0  0  0  0  0  0
   17.1786   11.6890   12.9393 O   0  0  0  0  0  0  0  0  0  0  0  0
   17.3755   10.9244   10.7674 N   0  0  0  0  0  0  0  0  0  0  0  0
   16.3263    9.9703   10.7955 C   0  0  0  0  0  0  0  0  0  0  0  0
   15.8025    9.5349    9.5805 C   0  0  0  0  0  0  0  0  0  0  0  0
   14.8058    8.5642    9.5348 C   0  0  0  0  0  0  0  0  0  0  0  0
   14.3920    7.9531   10.7037 C   0  0  0  0  0  0  0  0  0  0  0  0
   13.4888    6.9348   10.6729 O   0  0  0  0  0  0  0  0  0  0  0  0
   14.8740    8.3825   11.9274 C   0  0  0  0  0  0  0  0  0  0  0  0
   15.8091    9.4170   11.9730 C   0  0  0  0  0  0  0  0  0  0  0  0
  1  2  1  0
  2  3  1  0
  3  4  2  0
  4  5  1  0
  5  6  2  0
  6  7  1  0
  6  8  1  0
  8  9  2  0
  9 10  1  0
 10 11  2  0
 10 12  1  0
 12 13  1  0
 13 14  2  0
 14 15  1  0
 15 16  2  0
 16 17  1  0
 16 18  1  0
 18 19  2  0
  9  3  1  0
 19 13  1  0
M  END
>  <HIPPO ID>  (155) 
93813

>  <alias>  (155) 
None

>  <ref_mols>  (155) 
c0935a,c1118a

>  <submitter_email>  (155) 
None

>  <ref_pdb>  (155) 
c0270a

>  <inchikey>  (155) 
OCVOCNVCDVNCJL-UHFFFAOYSA-N

>  <generation_date>  (155) 
None

>  <original ID>  (155) 
OCVOCNVCDVNCJL-UHFFFAOYSA-N

>  <tags>  (155) 
[]

>  <exports>  (155) 
nan

>  <method>  (155) 
None

>  <submitter_name>  (155) 
None

>  <original SMILES>  (155) 
COc1ccc(N)cc1C(=O)Nc1ccc(O)cc1

>  <ref_url>  (155) 
None

$$$$
DIRACNHEQAQFHH-UHFFFAOYSA-N
     RDKit          3D

 20 21  0  0  0  0  0  0  0  0999 V2000
   21.6638   10.9835   10.3627 C   0  0  0  0  0  0  0  0  0  0  0  0
   20.2820   11.3111   10.4720 O   0  0  0  0  0  0  0  0  0  0  0  0
   20.0126   12.5275   11.0262 C   0  0  0  0  0  0  0  0  0  0  0  0
   20.9368   13.5803   11.0226 C   0  0  0  0  0  0  0  0  0  0  0  0
   20.6248   14.8002   11.6207 C   0  0  0  0  0  0  0  0  0  0  0  0
   19.3769   15.0098   12.1818 C   0  0  0  0  0  0  0  0  0  0  0  0
   19.0543   16.1873   12.8231 N   0  0  0  0  0  0  0  0  0  0  0  0
   18.4910   13.9577   12.2446 C   0  0  0  0  0  0  0  0  0  0  0  0
   18.7679   12.7337   11.6289 C   0  0  0  0  0  0  0  0  0  0  0  0
   17.6586   11.7735   11.7868 C   0  0  0  0  0  0  0  0  0  0  0  0
   16.9703   11.9161   12.7954 O   0  0  0  0  0  0  0  0  0  0  0  0
   17.3800   10.8867   10.7724 N   0  0  0  0  0  0  0  0  0  0  0  0
   16.3127    9.9536   10.8083 C   0  0  0  0  0  0  0  0  0  0  0  0
   15.8058    9.5126    9.5867 C   0  0  0  0  0  0  0  0  0  0  0  0
   14.8010    8.5510    9.5314 C   0  0  0  0  0  0  0  0  0  0  0  0
   14.3685    7.9442   10.6959 C   0  0  0  0  0  0  0  0  0  0  0  0
   13.4648    6.9270   10.6537 O   0  0  0  0  0  0  0  0  0  0  0  0
   14.8341    8.3736   11.9248 C   0  0  0  0  0  0  0  0  0  0  0  0
   15.7692    9.4017   11.9787 C   0  0  0  0  0  0  0  0  0  0  0  0
   16.2098    9.7393   13.1970 F   0  0  0  0  0  0  0  0  0  0  0  0
  1  2  1  0
  2  3  1  0
  3  4  2  0
  4  5  1  0
  5  6  2  0
  6  7  1  0
  6  8  1  0
  8  9  2  0
  9 10  1  0
 10 11  2  0
 10 12  1  0
 12 13  1  0
 13 14  2  0
 14 15  1  0
 15 16  2  0
 16 17  1  0
 16 18  1  0
 18 19  2  0
 19 20  1  0
  9  3  1  0
 19 13  1  0
M  END
>  <HIPPO ID>  (156) 
93865

>  <alias>  (156) 
None

>  <ref_mols>  (156) 
c0935a,c1118a

>  <submitter_email>  (156) 
None

>  <ref_pdb>  (156) 
c0270a

>  <inchikey>  (156) 
DIRACNHEQAQFHH-UHFFFAOYSA-N

>  <generation_date>  (156) 
None

>  <original ID>  (156) 
DIRACNHEQAQFHH-UHFFFAOYSA-N

>  <tags>  (156) 
[]

>  <exports>  (156) 
nan

>  <method>  (156) 
None

>  <submitter_name>  (156) 
None

>  <original SMILES>  (156) 
COc1ccc(N)cc1C(=O)Nc1ccc(O)cc1F

>  <ref_url>  (156) 
None

$$$$
JVLNUWYDPZIYMI-UHFFFAOYSA-N
     RDKit          3D

 20 21  0  0  0  0  0  0  0  0999 V2000
   21.4414   10.9798   10.1326 C   0  0  0  0  0  0  0  0  0  0  0  0
   20.1428   11.5112   10.3532 O   0  0  0  0  0  0  0  0  0  0  0  0
   20.0592   12.5837   11.1832 C   0  0  0  0  0  0  0  0  0  0  0  0
   21.1551   13.3985   11.4921 C   0  0  0  0  0  0  0  0  0  0  0  0
   21.0360   14.4184   12.4366 C   0  0  0  0  0  0  0  0  0  0  0  0
   19.8266   14.6477   13.0722 C   0  0  0  0  0  0  0  0  0  0  0  0
   19.6753   15.6621   14.0056 N   0  0  0  0  0  0  0  0  0  0  0  0
   18.7128   13.9564   12.6424 C   0  0  0  0  0  0  0  0  0  0  0  0
   18.8170   12.8770   11.7533 C   0  0  0  0  0  0  0  0  0  0  0  0
   17.5770   12.0650   11.6914 C   0  0  0  0  0  0  0  0  0  0  0  0
   16.6842   12.3665   12.4873 O   0  0  0  0  0  0  0  0  0  0  0  0
   17.4346   11.0244   10.7948 N   0  0  0  0  0  0  0  0  0  0  0  0
   16.3929   10.0722   10.9082 C   0  0  0  0  0  0  0  0  0  0  0  0
   15.9535    9.3822    9.7808 C   0  0  0  0  0  0  0  0  0  0  0  0
   14.9784    8.3877    9.9006 C   0  0  0  0  0  0  0  0  0  0  0  0
   14.5073    8.0245   11.1525 C   0  0  0  0  0  0  0  0  0  0  0  0
   13.6024    7.0023   11.2233 O   0  0  0  0  0  0  0  0  0  0  0  0
   14.9363    8.7095   12.2846 C   0  0  0  0  0  0  0  0  0  0  0  0
   14.3620    8.2948   13.8590 Cl  0  0  0  0  0  0  0  0  0  0  0  0
   15.8484    9.7459   12.1583 C   0  0  0  0  0  0  0  0  0  0  0  0
  1  2  1  0
  2  3  1  0
  3  4  2  0
  4  5  1  0
  5  6  2  0
  6  7  1  0
  6  8  1  0
  8  9  2  0
  9 10  1  0
 10 11  2  0
 10 12  1  0
 12 13  1  0
 13 14  2  0
 14 15  1  0
 15 16  2  0
 16 17  1  0
 16 18  1  0
 18 19  1  0
 18 20  2  0
  9  3  1  0
 20 13  1  0
M  END
>  <HIPPO ID>  (157) 
93893

>  <alias>  (157) 
None

>  <ref_mols>  (157) 
c0935a,c1118a

>  <submitter_email>  (157) 
None

>  <ref_pdb>  (157) 
c0270a

>  <inchikey>  (157) 
JVLNUWYDPZIYMI-UHFFFAOYSA-N

>  <generation_date>  (157) 
None

>  <original ID>  (157) 
JVLNUWYDPZIYMI-UHFFFAOYSA-N

>  <tags>  (157) 
[]

>  <exports>  (157) 
nan

>  <method>  (157) 
None

>  <submitter_name>  (157) 
None

>  <original SMILES>  (157) 
COc1ccc(N)cc1C(=O)Nc1ccc(O)c(Cl)c1

>  <ref_url>  (157) 
None

$$$$
IRKXYYNMAKDOPG-UHFFFAOYSA-N
     RDKit          3D

 20 21  0  0  0  0  0  0  0  0999 V2000
   21.8208   11.6380   10.2800 C   0  0  0  0  0  0  0  0  0  0  0  0
   20.4341   11.7441   10.6325 O   0  0  0  0  0  0  0  0  0  0  0  0
   20.0548   12.8696   11.3138 C   0  0  0  0  0  0  0  0  0  0  0  0
   20.9354   13.9263   11.6062 C   0  0  0  0  0  0  0  0  0  0  0  0
   20.5035   15.0328   12.3463 C   0  0  0  0  0  0  0  0  0  0  0  0
   21.7000   16.3854   12.8716 Br  0  0  0  0  0  0  0  0  0  0  0  0
   19.1907   15.1574   12.7556 C   0  0  0  0  0  0  0  0  0  0  0  0
   18.3144   14.1324   12.4749 C   0  0  0  0  0  0  0  0  0  0  0  0
   18.7349   12.9719   11.7873 C   0  0  0  0  0  0  0  0  0  0  0  0
   17.7206   11.9044   11.8889 C   0  0  0  0  0  0  0  0  0  0  0  0
   17.1240   11.8877   12.9681 O   0  0  0  0  0  0  0  0  0  0  0  0
   17.4280   11.0652   10.8340 N   0  0  0  0  0  0  0  0  0  0  0  0
   16.3996   10.0828   10.8818 C   0  0  0  0  0  0  0  0  0  0  0  0
   15.9262    9.5426    9.6889 C   0  0  0  0  0  0  0  0  0  0  0  0
   14.9407    8.5548    9.6871 C   0  0  0  0  0  0  0  0  0  0  0  0
   14.4774    8.0309   10.8847 C   0  0  0  0  0  0  0  0  0  0  0  0
   13.5714    7.0089   10.8615 O   0  0  0  0  0  0  0  0  0  0  0  0
   14.9244    8.5673   12.0876 C   0  0  0  0  0  0  0  0  0  0  0  0
   14.3691    7.9982   13.6210 Cl  0  0  0  0  0  0  0  0  0  0  0  0
   15.8547    9.6036   12.0790 C   0  0  0  0  0  0  0  0  0  0  0  0
  1  2  1  0
  2  3  1  0
  3  4  2  0
  4  5  1  0
  5  6  1  0
  5  7  2  0
  7  8  1  0
  8  9  2  0
  9 10  1  0
 10 11  2  0
 10 12  1  0
 12 13  1  0
 13 14  2  0
 14 15  1  0
 15 16  2  0
 16 17  1  0
 16 18  1  0
 18 19  1  0
 18 20  2  0
  9  3  1  0
 20 13  1  0
M  END
>  <HIPPO ID>  (158) 
93897

>  <alias>  (158) 
None

>  <ref_mols>  (158) 
c0935a,c1118a

>  <submitter_email>  (158) 
None

>  <ref_pdb>  (158) 
c0270a

>  <inchikey>  (158) 
IRKXYYNMAKDOPG-UHFFFAOYSA-N

>  <generation_date>  (158) 
None

>  <original ID>  (158) 
IRKXYYNMAKDOPG-UHFFFAOYSA-N

>  <tags>  (158) 
[]

>  <exports>  (158) 
nan

>  <method>  (158) 
None

>  <submitter_name>  (158) 
None

>  <original SMILES>  (158) 
COc1cc(Br)ccc1C(=O)Nc1ccc(O)c(Cl)c1

>  <ref_url>  (158) 
None

$$$$
TYDDRNHZEIRASG-UHFFFAOYSA-N
     RDKit          3D

 20 21  0  0  0  0  0  0  0  0999 V2000
   21.6366   11.1110   10.6335 C   0  0  0  0  0  0  0  0  0  0  0  0
   20.2760   11.5503   10.6537 O   0  0  0  0  0  0  0  0  0  0  0  0
   20.0087   12.6903   11.3638 C   0  0  0  0  0  0  0  0  0  0  0  0
   20.9958   13.6388   11.6874 C   0  0  0  0  0  0  0  0  0  0  0  0
   20.6734   14.7651   12.4523 C   0  0  0  0  0  0  0  0  0  0  0  0
   21.9803   16.0024   12.9956 Br  0  0  0  0  0  0  0  0  0  0  0  0
   19.3786   15.0060   12.8646 C   0  0  0  0  0  0  0  0  0  0  0  0
   18.3999   14.0934   12.5366 C   0  0  0  0  0  0  0  0  0  0  0  0
   18.6918   12.9236   11.8001 C   0  0  0  0  0  0  0  0  0  0  0  0
   17.5188   12.0177   11.7035 C   0  0  0  0  0  0  0  0  0  0  0  0
   16.5466   12.3090   12.4023 O   0  0  0  0  0  0  0  0  0  0  0  0
   17.4913   10.9572   10.8231 N   0  0  0  0  0  0  0  0  0  0  0  0
   16.4211   10.0234   10.8428 C   0  0  0  0  0  0  0  0  0  0  0  0
   15.9701    9.4818    9.6442 C   0  0  0  0  0  0  0  0  0  0  0  0
   14.9501    8.5330    9.6335 C   0  0  0  0  0  0  0  0  0  0  0  0
   14.4629    8.0275   10.8259 C   0  0  0  0  0  0  0  0  0  0  0  0
   13.5458    7.0204   10.8296 O   0  0  0  0  0  0  0  0  0  0  0  0
   14.8928    8.5452   12.0345 C   0  0  0  0  0  0  0  0  0  0  0  0
   15.8346    9.5673   12.0361 C   0  0  0  0  0  0  0  0  0  0  0  0
   16.2654   10.0009   13.2306 F   0  0  0  0  0  0  0  0  0  0  0  0
  1  2  1  0
  2  3  1  0
  3  4  2  0
  4  5  1  0
  5  6  1  0
  5  7  2  0
  7  8  1  0
  8  9  2  0
  9 10  1  0
 10 11  2  0
 10 12  1  0
 12 13  1  0
 13 14  2  0
 14 15  1  0
 15 16  2  0
 16 17  1  0
 16 18  1  0
 18 19  2  0
 19 20  1  0
  9  3  1  0
 19 13  1  0
M  END
>  <HIPPO ID>  (159) 
93916

>  <alias>  (159) 
None

>  <ref_mols>  (159) 
c0935a,c1118a

>  <submitter_email>  (159) 
None

>  <ref_pdb>  (159) 
c0270a

>  <inchikey>  (159) 
TYDDRNHZEIRASG-UHFFFAOYSA-N

>  <generation_date>  (159) 
None

>  <original ID>  (159) 
TYDDRNHZEIRASG-UHFFFAOYSA-N

>  <tags>  (159) 
[]

>  <exports>  (159) 
nan

>  <method>  (159) 
None

>  <submitter_name>  (159) 
None

>  <original SMILES>  (159) 
COc1cc(Br)ccc1C(=O)Nc1ccc(O)cc1F

>  <ref_url>  (159) 
None

$$$$
YNOBXACETKDGNK-UHFFFAOYSA-N
     RDKit          3D

 20 21  0  0  0  0  0  0  0  0999 V2000
   22.5621   11.8289    9.6904 C   0  0  0  0  0  0  0  0  0  0  0  0
   21.3370   11.1342   10.2580 C   0  0  0  0  0  0  0  0  0  0  0  0
   20.9098   11.5521   11.5546 O   0  0  0  0  0  0  0  0  0  0  0  0
   20.3065   12.7814   11.6499 C   0  0  0  0  0  0  0  0  0  0  0  0
   21.1455   13.8743   11.9903 C   0  0  0  0  0  0  0  0  0  0  0  0
   22.5487   13.7625   11.9847 N   0  0  0  0  0  0  0  0  0  0  0  0
   20.6028   15.1369   12.2466 C   0  0  0  0  0  0  0  0  0  0  0  0
   19.2363   15.3001   12.3678 C   0  0  0  0  0  0  0  0  0  0  0  0
   18.4105   14.2035   12.1858 C   0  0  0  0  0  0  0  0  0  0  0  0
   18.9162   12.9460   11.7942 C   0  0  0  0  0  0  0  0  0  0  0  0
   17.8733   11.9043   11.9377 C   0  0  0  0  0  0  0  0  0  0  0  0
   17.2802   11.9282   13.0185 O   0  0  0  0  0  0  0  0  0  0  0  0
   17.5270   11.0842   10.8794 N   0  0  0  0  0  0  0  0  0  0  0  0
   16.4676   10.1282   10.9178 C   0  0  0  0  0  0  0  0  0  0  0  0
   16.0087    9.5894    9.7155 C   0  0  0  0  0  0  0  0  0  0  0  0
   15.0136    8.6128    9.6847 C   0  0  0  0  0  0  0  0  0  0  0  0
   14.5277    8.0948   10.8683 C   0  0  0  0  0  0  0  0  0  0  0  0
   13.6213    7.0785   10.8647 O   0  0  0  0  0  0  0  0  0  0  0  0
   14.9475    8.6175   12.0791 C   0  0  0  0  0  0  0  0  0  0  0  0
   15.8837    9.6564   12.1001 C   0  0  0  0  0  0  0  0  0  0  0  0
  1  2  1  0
  2  3  1  0
  3  4  1  0
  4  5  2  0
  5  6  1  0
  5  7  1  0
  7  8  2  0
  8  9  1  0
  9 10  2  0
 10 11  1  0
 11 12  2  0
 11 13  1  0
 13 14  1  0
 14 15  2  0
 15 16  1  0
 16 17  2  0
 17 18  1  0
 17 19  1  0
 19 20  2  0
 10  4  1  0
 20 14  1  0
M  END
>  <HIPPO ID>  (160) 
93924

>  <alias>  (160) 
None

>  <ref_mols>  (160) 
c0935a,c1118a

>  <submitter_email>  (160) 
None

>  <ref_pdb>  (160) 
c0270a

>  <inchikey>  (160) 
YNOBXACETKDGNK-UHFFFAOYSA-N

>  <generation_date>  (160) 
None

>  <original ID>  (160) 
YNOBXACETKDGNK-UHFFFAOYSA-N

>  <tags>  (160) 
[]

>  <exports>  (160) 
nan

>  <method>  (160) 
None

>  <submitter_name>  (160) 
None

>  <original SMILES>  (160) 
CCOc1c(N)cccc1C(=O)Nc1ccc(O)cc1

>  <ref_url>  (160) 
None

$$$$
UBKCGNZKCDPBNT-UHFFFAOYSA-N
     RDKit          3D

 21 22  0  0  0  0  0  0  0  0999 V2000
   21.9646   11.8386   10.1181 C   0  0  0  0  0  0  0  0  0  0  0  0
   20.5946   12.1818   10.3452 O   0  0  0  0  0  0  0  0  0  0  0  0
   20.2642   13.0114   11.3728 C   0  0  0  0  0  0  0  0  0  0  0  0
   21.2692   13.7967   11.9655 C   0  0  0  0  0  0  0  0  0  0  0  0
   20.9836   14.6600   13.0145 C   0  0  0  0  0  0  0  0  0  0  0  0
   19.6806   14.8205   13.4366 C   0  0  0  0  0  0  0  0  0  0  0  0
   19.3685   15.5239   14.5907 N   0  0  0  0  0  0  0  0  0  0  0  0
   18.6902   14.0496   12.8625 C   0  0  0  0  0  0  0  0  0  0  0  0
   18.9280   13.1206   11.8359 C   0  0  0  0  0  0  0  0  0  0  0  0
   17.6198   12.4229   11.5128 C   0  0  0  0  0  0  0  0  0  0  0  0
   16.5864   12.9851   11.9037 O   0  0  0  0  0  0  0  0  0  0  0  0
   17.4857   11.2224   10.8365 N   0  0  0  0  0  0  0  0  0  0  0  0
   18.6134   10.4932   10.3750 C   0  0  0  0  0  0  0  0  0  0  0  0
   16.3050   10.4102   10.9647 C   0  0  0  0  0  0  0  0  0  0  0  0
   15.8683    9.6254    9.8876 C   0  0  0  0  0  0  0  0  0  0  0  0
   14.9860    8.5690   10.0871 C   0  0  0  0  0  0  0  0  0  0  0  0
   14.5666    8.2627   11.3737 C   0  0  0  0  0  0  0  0  0  0  0  0
   13.7790    7.1521   11.4881 O   0  0  0  0  0  0  0  0  0  0  0  0
   14.9126    9.0788   12.4600 C   0  0  0  0  0  0  0  0  0  0  0  0
   14.4595    8.8492   13.8721 C   0  0  0  0  0  0  0  0  0  0  0  0
   15.7656   10.1720   12.2322 C   0  0  0  0  0  0  0  0  0  0  0  0
  1  2  1  0
  2  3  1  0
  3  4  2  0
  4  5  1  0
  5  6  2  0
  6  7  1  0
  6  8  1  0
  8  9  2  0
  9 10  1  0
 10 11  2  0
 10 12  1  0
 12 13  1  0
 12 14  1  0
 14 15  2  0
 15 16  1  0
 16 17  2  0
 17 18  1  0
 17 19  1  0
 19 20  1  0
 19 21  2  0
  9  3  1  0
 21 14  1  0
M  END
>  <HIPPO ID>  (161) 
93946

>  <alias>  (161) 
None

>  <ref_mols>  (161) 
c0935a,c1118a

>  <submitter_email>  (161) 
None

>  <ref_pdb>  (161) 
c0270a

>  <inchikey>  (161) 
UBKCGNZKCDPBNT-UHFFFAOYSA-N

>  <generation_date>  (161) 
None

>  <original ID>  (161) 
UBKCGNZKCDPBNT-UHFFFAOYSA-N

>  <tags>  (161) 
[]

>  <exports>  (161) 
nan

>  <method>  (161) 
None

>  <submitter_name>  (161) 
None

>  <original SMILES>  (161) 
COc1ccc(N)cc1C(=O)N(C)c1ccc(O)c(C)c1

>  <ref_url>  (161) 
None

$$$$
RFCIPTSAYAETTH-UHFFFAOYSA-N
     RDKit          3D

 21 22  0  0  0  0  0  0  0  0999 V2000
   21.8129   11.1946   10.3184 C   0  0  0  0  0  0  0  0  0  0  0  0
   20.4708   11.6886   10.4125 O   0  0  0  0  0  0  0  0  0  0  0  0
   20.3226   12.7895   11.2059 C   0  0  0  0  0  0  0  0  0  0  0  0
   21.4028   13.6414   11.4880 C   0  0  0  0  0  0  0  0  0  0  0  0
   21.3032   14.6092   12.4826 C   0  0  0  0  0  0  0  0  0  0  0  0
   20.0989   14.8128   13.1306 C   0  0  0  0  0  0  0  0  0  0  0  0
   20.0392   15.4636   14.3678 N   0  0  0  0  0  0  0  0  0  0  0  0
   18.9976   14.0758   12.7512 C   0  0  0  0  0  0  0  0  0  0  0  0
   19.0832   13.0484   11.8029 C   0  0  0  0  0  0  0  0  0  0  0  0
   17.8250   12.2706   11.7305 C   0  0  0  0  0  0  0  0  0  0  0  0
   16.8684   12.6662   12.4020 O   0  0  0  0  0  0  0  0  0  0  0  0
   17.7242   11.1377   10.9570 N   0  0  0  0  0  0  0  0  0  0  0  0
   16.6435   10.2511   11.1478 C   0  0  0  0  0  0  0  0  0  0  0  0
   16.0842    9.6195   10.0594 C   0  0  0  0  0  0  0  0  0  0  0  0
   15.0191    8.7552   10.2758 C   0  0  0  0  0  0  0  0  0  0  0  0
   13.6858    8.5587    8.7637 I   0  0  0  0  0  0  0  0  0  0  0  0
   14.6689    8.3155   11.5471 C   0  0  0  0  0  0  0  0  0  0  0  0
   13.7722    7.2879   11.6856 O   0  0  0  0  0  0  0  0  0  0  0  0
   15.1847    8.9917   12.6386 C   0  0  0  0  0  0  0  0  0  0  0  0
   14.5010    8.6325   14.5720 I   0  0  0  0  0  0  0  0  0  0  0  0
   16.1341    9.9875   12.4343 C   0  0  0  0  0  0  0  0  0  0  0  0
  1  2  1  0
  2  3  1  0
  3  4  2  0
  4  5  1  0
  5  6  2  0
  6  7  1  0
  6  8  1  0
  8  9  2  0
  9 10  1  0
 10 11  2  0
 10 12  1  0
 12 13  1  0
 13 14  2  0
 14 15  1  0
 15 16  1  0
 15 17  2  0
 17 18  1  0
 17 19  1  0
 19 20  1  0
 19 21  2  0
  9  3  1  0
 21 13  1  0
M  END
>  <HIPPO ID>  (162) 
93975

>  <alias>  (162) 
None

>  <ref_mols>  (162) 
c0935a,c1118a

>  <submitter_email>  (162) 
None

>  <ref_pdb>  (162) 
c0270a

>  <inchikey>  (162) 
RFCIPTSAYAETTH-UHFFFAOYSA-N

>  <generation_date>  (162) 
None

>  <original ID>  (162) 
RFCIPTSAYAETTH-UHFFFAOYSA-N

>  <tags>  (162) 
[]

>  <exports>  (162) 
nan

>  <method>  (162) 
None

>  <submitter_name>  (162) 
None

>  <original SMILES>  (162) 
COc1ccc(N)cc1C(=O)Nc1cc(I)c(O)c(I)c1

>  <ref_url>  (162) 
None

$$$$
OYUZQWQYZBBQII-UHFFFAOYSA-N
     RDKit          3D

 21 22  0  0  0  0  0  0  0  0999 V2000
   21.9011   11.4886   10.6038 C   0  0  0  0  0  0  0  0  0  0  0  0
   20.5124   11.7585   10.8406 O   0  0  0  0  0  0  0  0  0  0  0  0
   20.2032   12.9417   11.4565 C   0  0  0  0  0  0  0  0  0  0  0  0
   21.1452   13.9427   11.7386 C   0  0  0  0  0  0  0  0  0  0  0  0
   20.7626   15.1006   12.4288 C   0  0  0  0  0  0  0  0  0  0  0  0
   22.0264   16.3536   13.0317 Br  0  0  0  0  0  0  0  0  0  0  0  0
   19.4457   15.3475   12.7635 C   0  0  0  0  0  0  0  0  0  0  0  0
   18.5103   14.3808   12.4881 C   0  0  0  0  0  0  0  0  0  0  0  0
   18.8823   13.1623   11.8836 C   0  0  0  0  0  0  0  0  0  0  0  0
   17.8240   12.1568   12.0474 C   0  0  0  0  0  0  0  0  0  0  0  0
   17.1760   12.2610   13.0918 O   0  0  0  0  0  0  0  0  0  0  0  0
   17.5626   11.2154   11.0819 N   0  0  0  0  0  0  0  0  0  0  0  0
   16.5447   10.2472   11.2467 C   0  0  0  0  0  0  0  0  0  0  0  0
   15.9830    9.6905   10.1174 C   0  0  0  0  0  0  0  0  0  0  0  0
   14.9548    8.7664   10.2678 C   0  0  0  0  0  0  0  0  0  0  0  0
   13.6634    8.5978    8.7216 I   0  0  0  0  0  0  0  0  0  0  0  0
   14.6134    8.2266   11.5026 C   0  0  0  0  0  0  0  0  0  0  0  0
   13.7131    7.1960   11.5741 O   0  0  0  0  0  0  0  0  0  0  0  0
   15.1304    8.8207   12.6376 C   0  0  0  0  0  0  0  0  0  0  0  0
   14.4415    8.3341   14.5436 I   0  0  0  0  0  0  0  0  0  0  0  0
   16.0675    9.8405   12.5069 C   0  0  0  0  0  0  0  0  0  0  0  0
  1  2  1  0
  2  3  1  0
  3  4  2  0
  4  5  1  0
  5  6  1  0
  5  7  2  0
  7  8  1  0
  8  9  2  0
  9 10  1  0
 10 11  2  0
 10 12  1  0
 12 13  1  0
 13 14  2  0
 14 15  1  0
 15 16  1  0
 15 17  2  0
 17 18  1  0
 17 19  1  0
 19 20  1  0
 19 21  2  0
  9  3  1  0
 21 13  1  0
M  END
>  <HIPPO ID>  (163) 
94018

>  <alias>  (163) 
None

>  <ref_mols>  (163) 
c0935a,c1118a

>  <submitter_email>  (163) 
None

>  <ref_pdb>  (163) 
c0270a

>  <inchikey>  (163) 
OYUZQWQYZBBQII-UHFFFAOYSA-N

>  <generation_date>  (163) 
None

>  <original ID>  (163) 
OYUZQWQYZBBQII-UHFFFAOYSA-N

>  <tags>  (163) 
[]

>  <exports>  (163) 
nan

>  <method>  (163) 
None

>  <submitter_name>  (163) 
None

>  <original SMILES>  (163) 
COc1cc(Br)ccc1C(=O)Nc1cc(I)c(O)c(I)c1

>  <ref_url>  (163) 
None

$$$$
BLOBGGIUXLECJK-UHFFFAOYSA-N
     RDKit          3D

 21 22  0  0  0  0  0  0  0  0999 V2000
   21.8659   11.8122   10.4189 C   0  0  0  0  0  0  0  0  0  0  0  0
   20.7379   11.7592   11.3020 O   0  0  0  0  0  0  0  0  0  0  0  0
   20.2127   12.9464   11.7408 C   0  0  0  0  0  0  0  0  0  0  0  0
   21.0822   14.0136   12.0165 C   0  0  0  0  0  0  0  0  0  0  0  0
   20.5928   15.2022   12.5519 C   0  0  0  0  0  0  0  0  0  0  0  0
   21.7610   16.5874   13.0479 Br  0  0  0  0  0  0  0  0  0  0  0  0
   19.2433   15.3821   12.7826 C   0  0  0  0  0  0  0  0  0  0  0  0
   18.3784   14.3348   12.5329 C   0  0  0  0  0  0  0  0  0  0  0  0
   18.8317   13.0892   12.0439 C   0  0  0  0  0  0  0  0  0  0  0  0
   17.7029   12.0895   12.1015 C   0  0  0  0  0  0  0  0  0  0  0  0
   16.9729   12.2293   13.0892 O   0  0  0  0  0  0  0  0  0  0  0  0
   17.4288   11.1512   11.0998 N   0  0  0  0  0  0  0  0  0  0  0  0
   18.4934   10.7796   10.2230 C   0  0  0  0  0  0  0  0  0  0  0  0
   16.3358   10.2101   11.1639 C   0  0  0  0  0  0  0  0  0  0  0  0
   15.8522    9.5923    9.9984 C   0  0  0  0  0  0  0  0  0  0  0  0
   14.9402    8.5390   10.0572 C   0  0  0  0  0  0  0  0  0  0  0  0
   14.5025    8.0785   11.2878 C   0  0  0  0  0  0  0  0  0  0  0  0
   13.6540    7.0105   11.2664 O   0  0  0  0  0  0  0  0  0  0  0  0
   14.8804    8.7261   12.4655 C   0  0  0  0  0  0  0  0  0  0  0  0
   14.3846    8.3529   13.8314 C   0  0  0  0  0  0  0  0  0  0  0  0
   15.7894    9.7944   12.3824 C   0  0  0  0  0  0  0  0  0  0  0  0
  1  2  1  0
  2  3  1  0
  3  4  2  0
  4  5  1  0
  5  6  1  0
  5  7  2  0
  7  8  1  0
  8  9  2  0
  9 10  1  0
 10 11  2  0
 10 12  1  0
 12 13  1  0
 12 14  1  0
 14 15  2  0
 15 16  1  0
 16 17  2  0
 17 18  1  0
 17 19  1  0
 19 20  1  0
 19 21  2  0
  9  3  1  0
 21 14  1  0
M  END
>  <HIPPO ID>  (164) 
94019

>  <alias>  (164) 
None

>  <ref_mols>  (164) 
c0935a,c1118a

>  <submitter_email>  (164) 
None

>  <ref_pdb>  (164) 
c0270a

>  <inchikey>  (164) 
BLOBGGIUXLECJK-UHFFFAOYSA-N

>  <generation_date>  (164) 
None

>  <original ID>  (164) 
BLOBGGIUXLECJK-UHFFFAOYSA-N

>  <tags>  (164) 
[]

>  <exports>  (164) 
nan

>  <method>  (164) 
None

>  <submitter_name>  (164) 
None

>  <original SMILES>  (164) 
COc1cc(Br)ccc1C(=O)N(C)c1ccc(O)c(C)c1

>  <ref_url>  (164) 
None

$$$$
MFSGWESPAAVVHV-UHFFFAOYSA-N
     RDKit          3D

 21 22  0  0  0  0  0  0  0  0999 V2000
   22.8002   11.5150    9.9537 C   0  0  0  0  0  0  0  0  0  0  0  0
   21.6737   11.3053   10.9493 C   0  0  0  0  0  0  0  0  0  0  0  0
   20.4740   11.9792   10.5192 O   0  0  0  0  0  0  0  0  0  0  0  0
   20.1131   13.0385   11.3179 C   0  0  0  0  0  0  0  0  0  0  0  0
   20.9912   14.1323   11.5529 C   0  0  0  0  0  0  0  0  0  0  0  0
   22.2671   14.2794   10.9882 N   0  0  0  0  0  0  0  0  0  0  0  0
   20.6747   15.1017   12.5116 C   0  0  0  0  0  0  0  0  0  0  0  0
   19.4395   15.1214   13.1168 C   0  0  0  0  0  0  0  0  0  0  0  0
   18.5197   14.1519   12.7697 C   0  0  0  0  0  0  0  0  0  0  0  0
   18.8204   13.0975   11.8684 C   0  0  0  0  0  0  0  0  0  0  0  0
   17.6492   12.1902   11.6841 C   0  0  0  0  0  0  0  0  0  0  0  0
   16.6018   12.5367   12.2397 O   0  0  0  0  0  0  0  0  0  0  0  0
   17.6718   11.0607   10.8841 N   0  0  0  0  0  0  0  0  0  0  0  0
   16.5772   10.1404   10.9319 C   0  0  0  0  0  0  0  0  0  0  0  0
   16.1505    9.4845    9.7805 C   0  0  0  0  0  0  0  0  0  0  0  0
   15.1273    8.5317    9.8405 C   0  0  0  0  0  0  0  0  0  0  0  0
   14.5902    8.1584   11.0600 C   0  0  0  0  0  0  0  0  0  0  0  0
   13.6684    7.1552   11.0771 O   0  0  0  0  0  0  0  0  0  0  0  0
   14.9876    8.7957   12.2213 C   0  0  0  0  0  0  0  0  0  0  0  0
   15.9499    9.7972   12.1457 C   0  0  0  0  0  0  0  0  0  0  0  0
   16.3670   10.3158   13.3112 F   0  0  0  0  0  0  0  0  0  0  0  0
  1  2  1  0
  2  3  1  0
  3  4  1  0
  4  5  2  0
  5  6  1  0
  5  7  1  0
  7  8  2  0
  8  9  1  0
  9 10  2  0
 10 11  1  0
 11 12  2  0
 11 13  1  0
 13 14  1  0
 14 15  2  0
 15 16  1  0
 16 17  2  0
 17 18  1  0
 17 19  1  0
 19 20  2  0
 20 21  1  0
 10  4  1  0
 20 14  1  0
M  END
>  <HIPPO ID>  (165) 
94061

>  <alias>  (165) 
None

>  <ref_mols>  (165) 
c0935a,c1118a

>  <submitter_email>  (165) 
None

>  <ref_pdb>  (165) 
c0270a

>  <inchikey>  (165) 
MFSGWESPAAVVHV-UHFFFAOYSA-N

>  <generation_date>  (165) 
None

>  <original ID>  (165) 
MFSGWESPAAVVHV-UHFFFAOYSA-N

>  <tags>  (165) 
[]

>  <exports>  (165) 
nan

>  <method>  (165) 
None

>  <submitter_name>  (165) 
None

>  <original SMILES>  (165) 
CCOc1c(N)cccc1C(=O)Nc1ccc(O)cc1F

>  <ref_url>  (165) 
None

$$$$
QDKDGKAXNZGKHU-UHFFFAOYSA-N
     RDKit          3D

 21 22  0  0  0  0  0  0  0  0999 V2000
   22.1301   10.8735   10.4491 C   0  0  0  0  0  0  0  0  0  0  0  0
   20.6424   11.0277   10.5361 C   0  0  0  0  0  0  0  0  0  0  0  0
   20.1960   12.3193   10.1807 O   0  0  0  0  0  0  0  0  0  0  0  0
   20.0684   13.1823   11.2218 C   0  0  0  0  0  0  0  0  0  0  0  0
   21.1214   14.1141   11.3919 C   0  0  0  0  0  0  0  0  0  0  0  0
   22.3308   13.9684   10.7058 N   0  0  0  0  0  0  0  0  0  0  0  0
   21.0250   15.0612   12.4063 C   0  0  0  0  0  0  0  0  0  0  0  0
   19.8540   15.1941   13.1348 C   0  0  0  0  0  0  0  0  0  0  0  0
   18.7975   14.3257   12.9014 C   0  0  0  0  0  0  0  0  0  0  0  0
   18.8905   13.2753   11.9672 C   0  0  0  0  0  0  0  0  0  0  0  0
   17.7153   12.3554   11.9769 C   0  0  0  0  0  0  0  0  0  0  0  0
   16.9281   12.5262   12.9101 O   0  0  0  0  0  0  0  0  0  0  0  0
   17.5167   11.3764   11.0128 N   0  0  0  0  0  0  0  0  0  0  0  0
   16.5174   10.3635   11.1175 C   0  0  0  0  0  0  0  0  0  0  0  0
   16.1599    9.6160    9.9945 C   0  0  0  0  0  0  0  0  0  0  0  0
   15.2255    8.5709   10.0835 C   0  0  0  0  0  0  0  0  0  0  0  0
   14.6787    8.2229   11.3124 C   0  0  0  0  0  0  0  0  0  0  0  0
   13.7881    7.2211   11.5670 O   0  0  0  0  0  0  0  0  0  0  0  0
   13.2889    6.5129   10.4511 C   0  0  0  0  0  0  0  0  0  0  0  0
   15.0327    8.9562   12.4365 C   0  0  0  0  0  0  0  0  0  0  0  0
   15.9207   10.0243   12.3368 C   0  0  0  0  0  0  0  0  0  0  0  0
  1  2  1  0
  2  3  1  0
  3  4  1  0
  4  5  2  0
  5  6  1  0
  5  7  1  0
  7  8  2  0
  8  9  1  0
  9 10  2  0
 10 11  1  0
 11 12  2  0
 11 13  1  0
 13 14  1  0
 14 15  2  0
 15 16  1  0
 16 17  2  0
 17 18  1  0
 18 19  1  0
 17 20  1  0
 20 21  2  0
 10  4  1  0
 21 14  1  0
M  END
>  <HIPPO ID>  (166) 
94065

>  <alias>  (166) 
None

>  <ref_mols>  (166) 
c0935a,c1118a

>  <submitter_email>  (166) 
None

>  <ref_pdb>  (166) 
c0270a

>  <inchikey>  (166) 
QDKDGKAXNZGKHU-UHFFFAOYSA-N

>  <generation_date>  (166) 
None

>  <original ID>  (166) 
QDKDGKAXNZGKHU-UHFFFAOYSA-N

>  <tags>  (166) 
[]

>  <exports>  (166) 
nan

>  <method>  (166) 
None

>  <submitter_name>  (166) 
None

>  <original SMILES>  (166) 
CCOc1c(N)cccc1C(=O)Nc1ccc(OC)cc1

>  <ref_url>  (166) 
None

$$$$
YDZPZSWSCJSZHL-UHFFFAOYSA-N
     RDKit          3D

 21 22  0  0  0  0  0  0  0  0999 V2000
   22.8295   11.5152    9.8665 C   0  0  0  0  0  0  0  0  0  0  0  0
   21.8193   11.1755   10.9484 C   0  0  0  0  0  0  0  0  0  0  0  0
   20.5325   11.7575   10.6819 O   0  0  0  0  0  0  0  0  0  0  0  0
   20.2233   12.9068   11.3724 C   0  0  0  0  0  0  0  0  0  0  0  0
   21.1616   13.9296   11.6914 C   0  0  0  0  0  0  0  0  0  0  0  0
   22.4920   13.9312   11.2448 N   0  0  0  0  0  0  0  0  0  0  0  0
   20.7358   15.1061   12.3303 C   0  0  0  0  0  0  0  0  0  0  0  0
   19.4201   15.2859   12.7074 C   0  0  0  0  0  0  0  0  0  0  0  0
   18.5146   14.2772   12.4526 C   0  0  0  0  0  0  0  0  0  0  0  0
   18.8932   13.0797   11.8008 C   0  0  0  0  0  0  0  0  0  0  0  0
   17.8239   12.0573   11.9023 C   0  0  0  0  0  0  0  0  0  0  0  0
   17.1779   12.1212   12.9529 O   0  0  0  0  0  0  0  0  0  0  0  0
   17.5395   11.1541   10.8925 N   0  0  0  0  0  0  0  0  0  0  0  0
   16.4955   10.1824   10.9811 C   0  0  0  0  0  0  0  0  0  0  0  0
   16.0577    9.5310    9.8258 C   0  0  0  0  0  0  0  0  0  0  0  0
   15.0763    8.5336    9.8854 C   0  0  0  0  0  0  0  0  0  0  0  0
   14.5765    8.1273   11.1100 C   0  0  0  0  0  0  0  0  0  0  0  0
   13.6708    7.1045   11.1278 O   0  0  0  0  0  0  0  0  0  0  0  0
   14.9894    8.7696   12.2705 C   0  0  0  0  0  0  0  0  0  0  0  0
   14.3841    8.3015   13.8193 Cl  0  0  0  0  0  0  0  0  0  0  0  0
   15.9165    9.8035   12.2009 C   0  0  0  0  0  0  0  0  0  0  0  0
  1  2  1  0
  2  3  1  0
  3  4  1  0
  4  5  2  0
  5  6  1  0
  5  7  1  0
  7  8  2  0
  8  9  1  0
  9 10  2  0
 10 11  1  0
 11 12  2  0
 11 13  1  0
 13 14  1  0
 14 15  2  0
 15 16  1  0
 16 17  2  0
 17 18  1  0
 17 19  1  0
 19 20  1  0
 19 21  2  0
 10  4  1  0
 21 14  1  0
M  END
>  <HIPPO ID>  (167) 
94089

>  <alias>  (167) 
None

>  <ref_mols>  (167) 
c0935a,c1118a

>  <submitter_email>  (167) 
None

>  <ref_pdb>  (167) 
c0270a

>  <inchikey>  (167) 
YDZPZSWSCJSZHL-UHFFFAOYSA-N

>  <generation_date>  (167) 
None

>  <original ID>  (167) 
YDZPZSWSCJSZHL-UHFFFAOYSA-N

>  <tags>  (167) 
[]

>  <exports>  (167) 
nan

>  <method>  (167) 
None

>  <submitter_name>  (167) 
None

>  <original SMILES>  (167) 
CCOc1c(N)cccc1C(=O)Nc1ccc(O)c(Cl)c1

>  <ref_url>  (167) 
None

$$$$
RSFOHNUXOIVVCM-UHFFFAOYSA-N
     RDKit          3D

 22 23  0  0  0  0  0  0  0  0999 V2000
   22.7542   11.5437    9.6186 C   0  0  0  0  0  0  0  0  0  0  0  0
   21.6176   11.1212   10.5330 C   0  0  0  0  0  0  0  0  0  0  0  0
   20.4575   11.9574   10.4176 O   0  0  0  0  0  0  0  0  0  0  0  0
   20.2718   12.9188   11.3800 C   0  0  0  0  0  0  0  0  0  0  0  0
   21.3074   13.7743   11.8439 C   0  0  0  0  0  0  0  0  0  0  0  0
   22.6008   13.7804   11.3086 N   0  0  0  0  0  0  0  0  0  0  0  0
   21.0203   14.8023   12.7544 C   0  0  0  0  0  0  0  0  0  0  0  0
   19.7384   15.0087   13.2208 C   0  0  0  0  0  0  0  0  0  0  0  0
   18.7271   14.1803   12.7770 C   0  0  0  0  0  0  0  0  0  0  0  0
   18.9658   13.1243   11.8664 C   0  0  0  0  0  0  0  0  0  0  0  0
   17.7322   12.3292   11.6043 C   0  0  0  0  0  0  0  0  0  0  0  0
   16.6668   12.7918   12.0209 O   0  0  0  0  0  0  0  0  0  0  0  0
   17.7610   11.1408   10.9017 N   0  0  0  0  0  0  0  0  0  0  0  0
   16.6516   10.2531   10.9582 C   0  0  0  0  0  0  0  0  0  0  0  0
   16.2789    9.5274    9.8352 C   0  0  0  0  0  0  0  0  0  0  0  0
   15.2607    8.5732    9.9039 C   0  0  0  0  0  0  0  0  0  0  0  0
   14.6630    8.2618   11.1175 C   0  0  0  0  0  0  0  0  0  0  0  0
   13.7363    7.2800   11.3235 O   0  0  0  0  0  0  0  0  0  0  0  0
   13.3312    6.5466   10.1772 C   0  0  0  0  0  0  0  0  0  0  0  0
   15.0155    8.9902   12.2473 C   0  0  0  0  0  0  0  0  0  0  0  0
   15.9735    9.9933   12.1594 C   0  0  0  0  0  0  0  0  0  0  0  0
   16.3409   10.5900   13.3035 F   0  0  0  0  0  0  0  0  0  0  0  0
  1  2  1  0
  2  3  1  0
  3  4  1  0
  4  5  2  0
  5  6  1  0
  5  7  1  0
  7  8  2  0
  8  9  1  0
  9 10  2  0
 10 11  1  0
 11 12  2  0
 11 13  1  0
 13 14  1  0
 14 15  2  0
 15 16  1  0
 16 17  2  0
 17 18  1  0
 18 19  1  0
 17 20  1  0
 20 21  2  0
 21 22  1  0
 10  4  1  0
 21 14  1  0
M  END
>  <HIPPO ID>  (168) 
94224

>  <alias>  (168) 
None

>  <ref_mols>  (168) 
c0935a,c1118a

>  <submitter_email>  (168) 
None

>  <ref_pdb>  (168) 
c0270a

>  <inchikey>  (168) 
RSFOHNUXOIVVCM-UHFFFAOYSA-N

>  <generation_date>  (168) 
None

>  <original ID>  (168) 
RSFOHNUXOIVVCM-UHFFFAOYSA-N

>  <tags>  (168) 
[]

>  <exports>  (168) 
nan

>  <method>  (168) 
None

>  <submitter_name>  (168) 
None

>  <original SMILES>  (168) 
CCOc1c(N)cccc1C(=O)Nc1ccc(OC)cc1F

>  <ref_url>  (168) 
None

$$$$
HCKHRGKNLYVFSB-UHFFFAOYSA-N
     RDKit          3D

 22 23  0  0  0  0  0  0  0  0999 V2000
   22.8715   11.5452   10.1154 C   0  0  0  0  0  0  0  0  0  0  0  0
   21.7739   11.5329   11.1628 C   0  0  0  0  0  0  0  0  0  0  0  0
   20.5342   12.0177   10.6098 O   0  0  0  0  0  0  0  0  0  0  0  0
   20.0680   13.1485   11.2388 C   0  0  0  0  0  0  0  0  0  0  0  0
   20.8251   14.3469   11.2754 C   0  0  0  0  0  0  0  0  0  0  0  0
   22.0878   14.5111   10.6871 N   0  0  0  0  0  0  0  0  0  0  0  0
   20.4061   15.4250   12.0665 C   0  0  0  0  0  0  0  0  0  0  0  0
   19.1826   15.4128   12.7020 C   0  0  0  0  0  0  0  0  0  0  0  0
   18.3805   14.2989   12.5657 C   0  0  0  0  0  0  0  0  0  0  0  0
   18.8020   13.1556   11.8434 C   0  0  0  0  0  0  0  0  0  0  0  0
   17.8335   12.0517   11.9943 C   0  0  0  0  0  0  0  0  0  0  0  0
   17.3040   12.0134   13.1079 O   0  0  0  0  0  0  0  0  0  0  0  0
   17.5025   11.2036   10.9518 N   0  0  0  0  0  0  0  0  0  0  0  0
   16.4849   10.2058   11.0408 C   0  0  0  0  0  0  0  0  0  0  0  0
   16.0564    9.5554    9.8871 C   0  0  0  0  0  0  0  0  0  0  0  0
   15.0965    8.5331    9.9445 C   0  0  0  0  0  0  0  0  0  0  0  0
   14.5885    8.0904   11.1651 C   0  0  0  0  0  0  0  0  0  0  0  0
   13.6745    7.0843   11.3062 O   0  0  0  0  0  0  0  0  0  0  0  0
   13.4871    6.2136   10.2004 C   0  0  0  0  0  0  0  0  0  0  0  0
   15.0015    8.7500   12.3232 C   0  0  0  0  0  0  0  0  0  0  0  0
   14.3530    8.2115   14.2595 I   0  0  0  0  0  0  0  0  0  0  0  0
   15.9115    9.8064   12.2527 C   0  0  0  0  0  0  0  0  0  0  0  0
  1  2  1  0
  2  3  1  0
  3  4  1  0
  4  5  2  0
  5  6  1  0
  5  7  1  0
  7  8  2  0
  8  9  1  0
  9 10  2  0
 10 11  1  0
 11 12  2  0
 11 13  1  0
 13 14  1  0
 14 15  2  0
 15 16  1  0
 16 17  2  0
 17 18  1  0
 18 19  1  0
 17 20  1  0
 20 21  1  0
 20 22  2  0
 10  4  1  0
 22 14  1  0
M  END
>  <HIPPO ID>  (169) 
94225

>  <alias>  (169) 
None

>  <ref_mols>  (169) 
c0935a,c1118a

>  <submitter_email>  (169) 
None

>  <ref_pdb>  (169) 
c0270a

>  <inchikey>  (169) 
HCKHRGKNLYVFSB-UHFFFAOYSA-N

>  <generation_date>  (169) 
None

>  <original ID>  (169) 
HCKHRGKNLYVFSB-UHFFFAOYSA-N

>  <tags>  (169) 
[]

>  <exports>  (169) 
nan

>  <method>  (169) 
None

>  <submitter_name>  (169) 
None

>  <original SMILES>  (169) 
CCOc1c(N)cccc1C(=O)Nc1ccc(OC)c(I)c1

>  <ref_url>  (169) 
None

$$$$
UTKZQQKQXKFMGF-UHFFFAOYSA-N
     RDKit          3D

 22 23  0  0  0  0  0  0  0  0999 V2000
   22.9213   11.7050   10.0683 C   0  0  0  0  0  0  0  0  0  0  0  0
   22.2329   11.5187   11.4060 C   0  0  0  0  0  0  0  0  0  0  0  0
   20.8575   11.8945   11.3247 O   0  0  0  0  0  0  0  0  0  0  0  0
   20.3931   13.0944   11.7944 C   0  0  0  0  0  0  0  0  0  0  0  0
   21.2481   14.2047   12.0377 C   0  0  0  0  0  0  0  0  0  0  0  0
   22.6057   14.2310   11.6723 N   0  0  0  0  0  0  0  0  0  0  0  0
   20.7092   15.4180   12.4840 C   0  0  0  0  0  0  0  0  0  0  0  0
   19.3582   15.5541   12.7372 C   0  0  0  0  0  0  0  0  0  0  0  0
   18.5221   14.4728   12.5347 C   0  0  0  0  0  0  0  0  0  0  0  0
   18.9971   13.2256   12.0676 C   0  0  0  0  0  0  0  0  0  0  0  0
   17.8648   12.2133   12.1146 C   0  0  0  0  0  0  0  0  0  0  0  0
   17.1180   12.3603   13.0908 O   0  0  0  0  0  0  0  0  0  0  0  0
   17.5979   11.2490   11.1265 N   0  0  0  0  0  0  0  0  0  0  0  0
   18.6675   10.8728   10.2523 C   0  0  0  0  0  0  0  0  0  0  0  0
   16.4844   10.3202   11.1873 C   0  0  0  0  0  0  0  0  0  0  0  0
   16.0232    9.6631   10.0338 C   0  0  0  0  0  0  0  0  0  0  0  0
   15.0861    8.6299   10.0966 C   0  0  0  0  0  0  0  0  0  0  0  0
   14.6018    8.2166   11.3251 C   0  0  0  0  0  0  0  0  0  0  0  0
   13.7479    7.1526   11.3097 O   0  0  0  0  0  0  0  0  0  0  0  0
   14.9573    8.8975   12.4904 C   0  0  0  0  0  0  0  0  0  0  0  0
   14.4208    8.5801   13.8555 C   0  0  0  0  0  0  0  0  0  0  0  0
   15.8842    9.9546   12.3980 C   0  0  0  0  0  0  0  0  0  0  0  0
  1  2  1  0
  2  3  1  0
  3  4  1  0
  4  5  2  0
  5  6  1  0
  5  7  1  0
  7  8  2  0
  8  9  1  0
  9 10  2  0
 10 11  1  0
 11 12  2  0
 11 13  1  0
 13 14  1  0
 13 15  1  0
 15 16  2  0
 16 17  1  0
 17 18  2  0
 18 19  1  0
 18 20  1  0
 20 21  1  0
 20 22  2  0
 10  4  1  0
 22 15  1  0
M  END
>  <HIPPO ID>  (170) 
94229

>  <alias>  (170) 
None

>  <ref_mols>  (170) 
c0935a,c1118a

>  <submitter_email>  (170) 
None

>  <ref_pdb>  (170) 
c0270a

>  <inchikey>  (170) 
UTKZQQKQXKFMGF-UHFFFAOYSA-N

>  <generation_date>  (170) 
None

>  <original ID>  (170) 
UTKZQQKQXKFMGF-UHFFFAOYSA-N

>  <tags>  (170) 
[]

>  <exports>  (170) 
nan

>  <method>  (170) 
None

>  <submitter_name>  (170) 
None

>  <original SMILES>  (170) 
CCOc1c(N)cccc1C(=O)N(C)c1ccc(O)c(C)c1

>  <ref_url>  (170) 
None

$$$$
WUJFBDXHVXTVDA-UHFFFAOYSA-N
     RDKit          3D

 22 23  0  0  0  0  0  0  0  0999 V2000
   23.1252   11.9499    9.8089 C   0  0  0  0  0  0  0  0  0  0  0  0
   21.6384   12.0475   10.0617 C   0  0  0  0  0  0  0  0  0  0  0  0
   21.3271   12.0088   11.4541 O   0  0  0  0  0  0  0  0  0  0  0  0
   20.5532   13.0875   11.8291 C   0  0  0  0  0  0  0  0  0  0  0  0
   21.2548   14.2000   12.3340 C   0  0  0  0  0  0  0  0  0  0  0  0
   22.6529   14.3016   12.2038 N   0  0  0  0  0  0  0  0  0  0  0  0
   20.5449   15.2989   12.8152 C   0  0  0  0  0  0  0  0  0  0  0  0
   19.1596   15.2633   12.9041 C   0  0  0  0  0  0  0  0  0  0  0  0
   18.4653   14.1434   12.4636 C   0  0  0  0  0  0  0  0  0  0  0  0
   19.1440   13.0534   11.8902 C   0  0  0  0  0  0  0  0  0  0  0  0
   18.3473   11.8703   11.4607 C   0  0  0  0  0  0  0  0  0  0  0  0
   18.8684   10.9155   10.9133 O   0  0  0  0  0  0  0  0  0  0  0  0
   16.9946   11.8826   11.7738 N   0  0  0  0  0  0  0  0  0  0  0  0
   16.2546   10.6930   11.6804 C   0  0  0  0  0  0  0  0  0  0  0  0
   15.7654   10.2263   10.4716 C   0  0  0  0  0  0  0  0  0  0  0  0
   14.9492    9.1014   10.4807 C   0  0  0  0  0  0  0  0  0  0  0  0
   13.8483    8.6950    8.8197 I   0  0  0  0  0  0  0  0  0  0  0  0
   14.6774    8.4013   11.6567 C   0  0  0  0  0  0  0  0  0  0  0  0
   13.9003    7.2702   11.6343 O   0  0  0  0  0  0  0  0  0  0  0  0
   15.1047    8.9329   12.8670 C   0  0  0  0  0  0  0  0  0  0  0  0
   14.4120    8.2120   14.6921 I   0  0  0  0  0  0  0  0  0  0  0  0
   15.9015   10.0748   12.8792 C   0  0  0  0  0  0  0  0  0  0  0  0
  1  2  1  0
  2  3  1  0
  3  4  1  0
  4  5  2  0
  5  6  1  0
  5  7  1  0
  7  8  2  0
  8  9  1  0
  9 10  2  0
 10 11  1  0
 11 12  2  0
 11 13  1  0
 13 14  1  0
 14 15  2  0
 15 16  1  0
 16 17  1  0
 16 18  2  0
 18 19  1  0
 18 20  1  0
 20 21  1  0
 20 22  2  0
 10  4  1  0
 22 14  1  0
M  END
>  <HIPPO ID>  (171) 
94230

>  <alias>  (171) 
None

>  <ref_mols>  (171) 
c0935a,c1118a

>  <submitter_email>  (171) 
None

>  <ref_pdb>  (171) 
c0270a

>  <inchikey>  (171) 
WUJFBDXHVXTVDA-UHFFFAOYSA-N

>  <generation_date>  (171) 
None

>  <original ID>  (171) 
WUJFBDXHVXTVDA-UHFFFAOYSA-N

>  <tags>  (171) 
[]

>  <exports>  (171) 
nan

>  <method>  (171) 
None

>  <submitter_name>  (171) 
None

>  <original SMILES>  (171) 
CCOc1c(N)cccc1C(=O)Nc1cc(I)c(O)c(I)c1

>  <ref_url>  (171) 
None

$$$$
SCAIHNSAJSBMPF-UHFFFAOYSA-N
     RDKit          3D

 22 23  0  0  0  0  0  0  0  0999 V2000
   22.9179   11.6399    9.8587 C   0  0  0  0  0  0  0  0  0  0  0  0
   21.8285   11.3677   10.8869 C   0  0  0  0  0  0  0  0  0  0  0  0
   20.5939   12.0313   10.5403 O   0  0  0  0  0  0  0  0  0  0  0  0
   20.2169   13.0408   11.3959 C   0  0  0  0  0  0  0  0  0  0  0  0
   21.1014   14.0949   11.7628 C   0  0  0  0  0  0  0  0  0  0  0  0
   22.4219   14.2480   11.3077 N   0  0  0  0  0  0  0  0  0  0  0  0
   20.7380   15.0171   12.7530 C   0  0  0  0  0  0  0  0  0  0  0  0
   19.4637   15.0380   13.2707 C   0  0  0  0  0  0  0  0  0  0  0  0
   18.5494   14.1144   12.8060 C   0  0  0  0  0  0  0  0  0  0  0  0
   18.8885   13.1082   11.8639 C   0  0  0  0  0  0  0  0  0  0  0  0
   17.6888   12.2815   11.5382 C   0  0  0  0  0  0  0  0  0  0  0  0
   16.5896   12.7877   11.7864 O   0  0  0  0  0  0  0  0  0  0  0  0
   17.7628   11.0260   10.9692 N   0  0  0  0  0  0  0  0  0  0  0  0
   16.6091   10.1692   10.9988 C   0  0  0  0  0  0  0  0  0  0  0  0
   16.2447    9.4980    9.8344 C   0  0  0  0  0  0  0  0  0  0  0  0
   15.1940    8.5764    9.8295 C   0  0  0  0  0  0  0  0  0  0  0  0
   14.5663    8.2019   11.0062 C   0  0  0  0  0  0  0  0  0  0  0  0
   13.6084    7.2391   10.8729 O   0  0  0  0  0  0  0  0  0  0  0  0
   13.2751    6.4829   12.0268 C   0  0  0  0  0  0  0  0  0  0  0  0
   14.9042    8.8623   12.1785 C   0  0  0  0  0  0  0  0  0  0  0  0
   15.8709    9.8804   12.1696 C   0  0  0  0  0  0  0  0  0  0  0  0
   16.1589   10.6167   13.7111 Cl  0  0  0  0  0  0  0  0  0  0  0  0
  1  2  1  0
  2  3  1  0
  3  4  1  0
  4  5  2  0
  5  6  1  0
  5  7  1  0
  7  8  2  0
  8  9  1  0
  9 10  2  0
 10 11  1  0
 11 12  2  0
 11 13  1  0
 13 14  1  0
 14 15  2  0
 15 16  1  0
 16 17  2  0
 17 18  1  0
 18 19  1  0
 17 20  1  0
 20 21  2  0
 21 22  1  0
 10  4  1  0
 21 14  1  0
M  END
>  <HIPPO ID>  (172) 
94263

>  <alias>  (172) 
None

>  <ref_mols>  (172) 
c0935a,c1118a

>  <submitter_email>  (172) 
None

>  <ref_pdb>  (172) 
c0270a

>  <inchikey>  (172) 
SCAIHNSAJSBMPF-UHFFFAOYSA-N

>  <generation_date>  (172) 
None

>  <original ID>  (172) 
SCAIHNSAJSBMPF-UHFFFAOYSA-N

>  <tags>  (172) 
[]

>  <exports>  (172) 
nan

>  <method>  (172) 
None

>  <submitter_name>  (172) 
None

>  <original SMILES>  (172) 
CCOc1c(N)cccc1C(=O)Nc1ccc(OC)cc1Cl

>  <ref_url>  (172) 
None

$$$$
UXXDCPKWYQJQMH-UHFFFAOYSA-N
     RDKit          3D

 22 23  0  0  0  0  0  0  0  0999 V2000
   22.4431   12.1437   10.1873 C   0  0  0  0  0  0  0  0  0  0  0  0
   21.0391   11.9538   10.3610 O   0  0  0  0  0  0  0  0  0  0  0  0
   20.3379   12.8660   11.1011 C   0  0  0  0  0  0  0  0  0  0  0  0
   20.9012   14.0051   11.6668 C   0  0  0  0  0  0  0  0  0  0  0  0
   20.1179   14.8433   12.4649 C   0  0  0  0  0  0  0  0  0  0  0  0
   18.7813   14.5414   12.7315 C   0  0  0  0  0  0  0  0  0  0  0  0
   17.9813   15.4026   13.4580 N   0  0  0  0  0  0  0  0  0  0  0  0
   18.1868   13.4688   12.0995 C   0  0  0  0  0  0  0  0  0  0  0  0
   18.9585   12.6359   11.3016 C   0  0  0  0  0  0  0  0  0  0  0  0
   18.3288   11.3761   10.9451 C   0  0  0  0  0  0  0  0  0  0  0  0
   18.9630   10.3811   11.2115 O   0  0  0  0  0  0  0  0  0  0  0  0
   17.0617   11.3229   10.4147 N   0  0  0  0  0  0  0  0  0  0  0  0
   16.2028   10.2463   10.7346 C   0  0  0  0  0  0  0  0  0  0  0  0
   15.7024    9.4492    9.7081 C   0  0  0  0  0  0  0  0  0  0  0  0
   14.8716    8.3765   10.0045 C   0  0  0  0  0  0  0  0  0  0  0  0
   14.5245    8.1171   11.3266 C   0  0  0  0  0  0  0  0  0  0  0  0
   13.7222    7.0471   11.5958 O   0  0  0  0  0  0  0  0  0  0  0  0
   14.9369    8.9630   12.3620 C   0  0  0  0  0  0  0  0  0  0  0  0
   14.4818    8.8179   13.7908 C   0  0  0  0  0  0  0  0  0  0  0  0
   13.3204    8.1307   13.9904 F   0  0  0  0  0  0  0  0  0  0  0  0
   14.2543   10.0349   14.3778 F   0  0  0  0  0  0  0  0  0  0  0  0
   15.8077   10.0212   12.0504 C   0  0  0  0  0  0  0  0  0  0  0  0
  1  2  1  0
  2  3  1  0
  3  4  2  0
  4  5  1  0
  5  6  2  0
  6  7  1  0
  6  8  1  0
  8  9  2  0
  9 10  1  0
 10 11  2  0
 10 12  1  0
 12 13  1  0
 13 14  2  0
 14 15  1  0
 15 16  2  0
 16 17  1  0
 16 18  1  0
 18 19  1  0
 19 20  1  0
 19 21  1  0
 18 22  2  0
  9  3  1  0
 22 13  1  0
M  END
>  <HIPPO ID>  (173) 
94769

>  <alias>  (173) 
None

>  <ref_mols>  (173) 
c0935a,c1118a

>  <submitter_email>  (173) 
None

>  <ref_pdb>  (173) 
c0270a

>  <inchikey>  (173) 
UXXDCPKWYQJQMH-UHFFFAOYSA-N

>  <generation_date>  (173) 
None

>  <original ID>  (173) 
UXXDCPKWYQJQMH-UHFFFAOYSA-N

>  <tags>  (173) 
[]

>  <exports>  (173) 
nan

>  <method>  (173) 
None

>  <submitter_name>  (173) 
None

>  <original SMILES>  (173) 
COc1ccc(N)cc1C(=O)Nc1ccc(O)c(C(F)F)c1

>  <ref_url>  (173) 
None

$$$$
UFURGXJYUMXEHR-UHFFFAOYSA-N
     RDKit          3D

 22 23  0  0  0  0  0  0  0  0999 V2000
   21.7011   10.9207   10.5479 C   0  0  0  0  0  0  0  0  0  0  0  0
   20.3572   11.3982   10.5669 O   0  0  0  0  0  0  0  0  0  0  0  0
   20.1609   12.5838   11.2146 C   0  0  0  0  0  0  0  0  0  0  0  0
   21.2022   13.4841   11.4896 C   0  0  0  0  0  0  0  0  0  0  0  0
   20.9599   14.6869   12.1615 C   0  0  0  0  0  0  0  0  0  0  0  0
   19.6726   15.0476   12.5132 C   0  0  0  0  0  0  0  0  0  0  0  0
   19.3846   16.2018   13.2214 N   0  0  0  0  0  0  0  0  0  0  0  0
   18.6666   14.1299   12.3168 C   0  0  0  0  0  0  0  0  0  0  0  0
   18.8695   12.9224   11.6276 C   0  0  0  0  0  0  0  0  0  0  0  0
   17.6088   12.1638   11.4781 C   0  0  0  0  0  0  0  0  0  0  0  0
   16.5820   12.7169   11.8780 O   0  0  0  0  0  0  0  0  0  0  0  0
   17.5605   10.9453   10.8471 N   0  0  0  0  0  0  0  0  0  0  0  0
   16.4359   10.0817   10.9516 C   0  0  0  0  0  0  0  0  0  0  0  0
   16.1052    9.3100    9.8390 C   0  0  0  0  0  0  0  0  0  0  0  0
   15.1111    8.3322    9.9205 C   0  0  0  0  0  0  0  0  0  0  0  0
   14.5261    8.0303   11.1338 C   0  0  0  0  0  0  0  0  0  0  0  0
   13.6299    7.0063   11.1815 O   0  0  0  0  0  0  0  0  0  0  0  0
   14.8137    8.7931   12.2493 C   0  0  0  0  0  0  0  0  0  0  0  0
   15.6942    9.8726   12.1314 C   0  0  0  0  0  0  0  0  0  0  0  0
   15.7576   10.7299   13.3180 C   0  0  0  0  0  0  0  0  0  0  0  0
   16.5957   10.7525   14.1916 O   0  0  0  0  0  0  0  0  0  0  0  0
   14.6849   11.5324   13.3124 O   0  0  0  0  0  0  0  0  0  0  0  0
  1  2  1  0
  2  3  1  0
  3  4  2  0
  4  5  1  0
  5  6  2  0
  6  7  1  0
  6  8  1  0
  8  9  2  0
  9 10  1  0
 10 11  2  0
 10 12  1  0
 12 13  1  0
 13 14  2  0
 14 15  1  0
 15 16  2  0
 16 17  1  0
 16 18  1  0
 18 19  2  0
 19 20  1  0
 20 21  2  0
 20 22  1  0
  9  3  1  0
 19 13  1  0
M  END
>  <HIPPO ID>  (174) 
94771

>  <alias>  (174) 
None

>  <ref_mols>  (174) 
c0935a,c1118a

>  <submitter_email>  (174) 
None

>  <ref_pdb>  (174) 
c0270a

>  <inchikey>  (174) 
UFURGXJYUMXEHR-UHFFFAOYSA-N

>  <generation_date>  (174) 
None

>  <original ID>  (174) 
UFURGXJYUMXEHR-UHFFFAOYSA-N

>  <tags>  (174) 
[]

>  <exports>  (174) 
nan

>  <method>  (174) 
None

>  <submitter_name>  (174) 
None

>  <original SMILES>  (174) 
COc1ccc(N)cc1C(=O)Nc1ccc(O)cc1C(=O)O

>  <ref_url>  (174) 
None

$$$$
QIHJMIYCXDPQIJ-UHFFFAOYSA-N
     RDKit          3D

 22 23  0  0  0  0  0  0  0  0999 V2000
   21.5063   11.0403   10.1113 C   0  0  0  0  0  0  0  0  0  0  0  0
   20.1978   11.5320   10.3619 O   0  0  0  0  0  0  0  0  0  0  0  0
   20.0951   12.5905   11.2085 C   0  0  0  0  0  0  0  0  0  0  0  0
   21.1907   13.3736   11.5893 C   0  0  0  0  0  0  0  0  0  0  0  0
   21.0352   14.4002   12.5180 C   0  0  0  0  0  0  0  0  0  0  0  0
   19.7797   14.7157   13.0121 C   0  0  0  0  0  0  0  0  0  0  0  0
   19.6197   15.5778   14.0825 N   0  0  0  0  0  0  0  0  0  0  0  0
   18.6956   13.9608   12.6185 C   0  0  0  0  0  0  0  0  0  0  0  0
   18.8322   12.8892   11.7331 C   0  0  0  0  0  0  0  0  0  0  0  0
   17.5807   12.1108   11.5926 C   0  0  0  0  0  0  0  0  0  0  0  0
   16.5674   12.5299   12.1546 O   0  0  0  0  0  0  0  0  0  0  0  0
   17.5507   10.9706   10.8236 N   0  0  0  0  0  0  0  0  0  0  0  0
   16.4682   10.0763   10.9402 C   0  0  0  0  0  0  0  0  0  0  0  0
   15.9046    9.5419    9.7964 C   0  0  0  0  0  0  0  0  0  0  0  0
   14.8514    8.6396    9.9214 C   0  0  0  0  0  0  0  0  0  0  0  0
   14.0043    8.4433    8.8065 C   0  0  0  0  0  0  0  0  0  0  0  0
   13.2329    8.3542    7.9518 N   0  0  0  0  0  0  0  0  0  0  0  0
   14.5115    8.1018   11.1606 C   0  0  0  0  0  0  0  0  0  0  0  0
   13.6018    7.0942   11.3220 O   0  0  0  0  0  0  0  0  0  0  0  0
   15.0516    8.6475   12.3108 C   0  0  0  0  0  0  0  0  0  0  0  0
   15.9699    9.6807   12.1946 C   0  0  0  0  0  0  0  0  0  0  0  0
   16.4723   10.1949   13.3259 F   0  0  0  0  0  0  0  0  0  0  0  0
  1  2  1  0
  2  3  1  0
  3  4  2  0
  4  5  1  0
  5  6  2  0
  6  7  1  0
  6  8  1  0
  8  9  2  0
  9 10  1  0
 10 11  2  0
 10 12  1  0
 12 13  1  0
 13 14  2  0
 14 15  1  0
 15 16  1  0
 16 17  3  0
 15 18  2  0
 18 19  1  0
 18 20  1  0
 20 21  2  0
 21 22  1  0
  9  3  1  0
 21 13  1  0
M  END
>  <HIPPO ID>  (175) 
94773

>  <alias>  (175) 
None

>  <ref_mols>  (175) 
c0935a,c1118a

>  <submitter_email>  (175) 
None

>  <ref_pdb>  (175) 
c0270a

>  <inchikey>  (175) 
QIHJMIYCXDPQIJ-UHFFFAOYSA-N

>  <generation_date>  (175) 
None

>  <original ID>  (175) 
QIHJMIYCXDPQIJ-UHFFFAOYSA-N

>  <tags>  (175) 
[]

>  <exports>  (175) 
nan

>  <method>  (175) 
None

>  <submitter_name>  (175) 
None

>  <original SMILES>  (175) 
COc1ccc(N)cc1C(=O)Nc1cc(C#N)c(O)cc1F

>  <ref_url>  (175) 
None

$$$$
GZKGTMFLGDPJSG-UHFFFAOYSA-N
     RDKit          3D

 22 23  0  0  0  0  0  0  0  0999 V2000
   21.8119   11.5579   10.3410 C   0  0  0  0  0  0  0  0  0  0  0  0
   20.4218   11.7613   10.6422 O   0  0  0  0  0  0  0  0  0  0  0  0
   20.1091   12.8636   11.3953 C   0  0  0  0  0  0  0  0  0  0  0  0
   21.0681   13.8284   11.7616 C   0  0  0  0  0  0  0  0  0  0  0  0
   20.7156   14.9284   12.5484 C   0  0  0  0  0  0  0  0  0  0  0  0
   21.9915   16.1918   13.1028 Br  0  0  0  0  0  0  0  0  0  0  0  0
   19.4163   15.1242   12.9619 C   0  0  0  0  0  0  0  0  0  0  0  0
   18.4658   14.1922   12.6077 C   0  0  0  0  0  0  0  0  0  0  0  0
   18.7845   13.0477   11.8380 C   0  0  0  0  0  0  0  0  0  0  0  0
   17.6108   12.1451   11.7041 C   0  0  0  0  0  0  0  0  0  0  0  0
   16.5875   12.4694   12.3131 O   0  0  0  0  0  0  0  0  0  0  0  0
   17.6157   11.0296   10.8921 N   0  0  0  0  0  0  0  0  0  0  0  0
   16.5322   10.1140   10.9812 C   0  0  0  0  0  0  0  0  0  0  0  0
   15.9610    9.5986    9.8290 C   0  0  0  0  0  0  0  0  0  0  0  0
   14.9033    8.6928    9.9362 C   0  0  0  0  0  0  0  0  0  0  0  0
   14.0549    8.4943    8.8206 C   0  0  0  0  0  0  0  0  0  0  0  0
   13.2619    8.3798    7.9882 N   0  0  0  0  0  0  0  0  0  0  0  0
   14.5548    8.1390   11.1660 C   0  0  0  0  0  0  0  0  0  0  0  0
   13.6404    7.1326   11.3109 O   0  0  0  0  0  0  0  0  0  0  0  0
   15.0947    8.6631   12.3239 C   0  0  0  0  0  0  0  0  0  0  0  0
   16.0236    9.6898   12.2257 C   0  0  0  0  0  0  0  0  0  0  0  0
   16.5244   10.1708   13.3722 F   0  0  0  0  0  0  0  0  0  0  0  0
  1  2  1  0
  2  3  1  0
  3  4  2  0
  4  5  1  0
  5  6  1  0
  5  7  2  0
  7  8  1  0
  8  9  2  0
  9 10  1  0
 10 11  2  0
 10 12  1  0
 12 13  1  0
 13 14  2  0
 14 15  1  0
 15 16  1  0
 16 17  3  0
 15 18  2  0
 18 19  1  0
 18 20  1  0
 20 21  2  0
 21 22  1  0
  9  3  1  0
 21 13  1  0
M  END
>  <HIPPO ID>  (176) 
94856

>  <alias>  (176) 
None

>  <ref_mols>  (176) 
c0935a,c1118a

>  <submitter_email>  (176) 
None

>  <ref_pdb>  (176) 
c0270a

>  <inchikey>  (176) 
GZKGTMFLGDPJSG-UHFFFAOYSA-N

>  <generation_date>  (176) 
None

>  <original ID>  (176) 
GZKGTMFLGDPJSG-UHFFFAOYSA-N

>  <tags>  (176) 
[]

>  <exports>  (176) 
nan

>  <method>  (176) 
None

>  <submitter_name>  (176) 
None

>  <original SMILES>  (176) 
COc1cc(Br)ccc1C(=O)Nc1cc(C#N)c(O)cc1F

>  <ref_url>  (176) 
None

$$$$
GQLOJZIUCZCJSL-UHFFFAOYSA-N
     RDKit          3D

 22 23  0  0  0  0  0  0  0  0999 V2000
   21.8637   11.4286   10.4699 C   0  0  0  0  0  0  0  0  0  0  0  0
   20.4700   11.7250   10.6406 O   0  0  0  0  0  0  0  0  0  0  0  0
   20.1669   12.8296   11.3922 C   0  0  0  0  0  0  0  0  0  0  0  0
   21.1378   13.7676   11.7926 C   0  0  0  0  0  0  0  0  0  0  0  0
   20.7905   14.8622   12.5895 C   0  0  0  0  0  0  0  0  0  0  0  0
   22.0752   16.1049   13.1699 Br  0  0  0  0  0  0  0  0  0  0  0  0
   19.4885   15.0713   12.9890 C   0  0  0  0  0  0  0  0  0  0  0  0
   18.5256   14.1710   12.5897 C   0  0  0  0  0  0  0  0  0  0  0  0
   18.8350   13.0462   11.7880 C   0  0  0  0  0  0  0  0  0  0  0  0
   17.6348   12.2079   11.5438 C   0  0  0  0  0  0  0  0  0  0  0  0
   16.5575   12.6439   11.9616 O   0  0  0  0  0  0  0  0  0  0  0  0
   17.6829   11.0163   10.8481 N   0  0  0  0  0  0  0  0  0  0  0  0
   16.5810   10.1243   10.9427 C   0  0  0  0  0  0  0  0  0  0  0  0
   16.1630    9.3889    9.8408 C   0  0  0  0  0  0  0  0  0  0  0  0
   15.1489    8.4377    9.9806 C   0  0  0  0  0  0  0  0  0  0  0  0
   14.5879    8.1779   11.2264 C   0  0  0  0  0  0  0  0  0  0  0  0
   13.6721    7.1621   11.2671 O   0  0  0  0  0  0  0  0  0  0  0  0
   14.9588    8.9407   12.3326 C   0  0  0  0  0  0  0  0  0  0  0  0
   14.3449    8.8009   13.6150 C   0  0  0  0  0  0  0  0  0  0  0  0
   13.7489    8.6685   14.6038 N   0  0  0  0  0  0  0  0  0  0  0  0
   15.9445    9.9046   12.1794 C   0  0  0  0  0  0  0  0  0  0  0  0
   16.3806   10.5328   13.2851 F   0  0  0  0  0  0  0  0  0  0  0  0
  1  2  1  0
  2  3  1  0
  3  4  2  0
  4  5  1  0
  5  6  1  0
  5  7  2  0
  7  8  1  0
  8  9  2  0
  9 10  1  0
 10 11  2  0
 10 12  1  0
 12 13  1  0
 13 14  2  0
 14 15  1  0
 15 16  2  0
 16 17  1  0
 16 18  1  0
 18 19  1  0
 19 20  3  0
 18 21  2  0
 21 22  1  0
  9  3  1  0
 21 13  1  0
M  END
>  <HIPPO ID>  (177) 
94857

>  <alias>  (177) 
None

>  <ref_mols>  (177) 
c0935a,c1118a

>  <submitter_email>  (177) 
None

>  <ref_pdb>  (177) 
c0270a

>  <inchikey>  (177) 
GQLOJZIUCZCJSL-UHFFFAOYSA-N

>  <generation_date>  (177) 
None

>  <original ID>  (177) 
GQLOJZIUCZCJSL-UHFFFAOYSA-N

>  <tags>  (177) 
[]

>  <exports>  (177) 
nan

>  <method>  (177) 
None

>  <submitter_name>  (177) 
None

>  <original SMILES>  (177) 
COc1cc(Br)ccc1C(=O)Nc1ccc(O)c(C#N)c1F

>  <ref_url>  (177) 
None

$$$$
NYCFOTNSYGHSAD-UHFFFAOYSA-N
     RDKit          3D

 22 23  0  0  0  0  0  0  0  0999 V2000
   21.8401   11.2624   10.7257 C   0  0  0  0  0  0  0  0  0  0  0  0
   20.4496   11.6034   10.7591 O   0  0  0  0  0  0  0  0  0  0  0  0
   20.1186   12.7860   11.3629 C   0  0  0  0  0  0  0  0  0  0  0  0
   21.0443   13.8035   11.6437 C   0  0  0  0  0  0  0  0  0  0  0  0
   20.6434   14.9516   12.3402 C   0  0  0  0  0  0  0  0  0  0  0  0
   21.8847   16.2393   12.9204 Br  0  0  0  0  0  0  0  0  0  0  0  0
   19.3234   15.1642   12.6905 C   0  0  0  0  0  0  0  0  0  0  0  0
   18.4022   14.1842   12.4032 C   0  0  0  0  0  0  0  0  0  0  0  0
   18.7897   12.9843   11.7708 C   0  0  0  0  0  0  0  0  0  0  0  0
   17.7449   11.9580   11.8986 C   0  0  0  0  0  0  0  0  0  0  0  0
   17.1588   11.9925   12.9829 O   0  0  0  0  0  0  0  0  0  0  0  0
   17.4431   11.0925   10.8689 N   0  0  0  0  0  0  0  0  0  0  0  0
   16.4135   10.1189   10.9446 C   0  0  0  0  0  0  0  0  0  0  0  0
   16.0033    9.4697    9.7881 C   0  0  0  0  0  0  0  0  0  0  0  0
   15.0311    8.4702    9.8466 C   0  0  0  0  0  0  0  0  0  0  0  0
   14.5046    8.0626   11.0682 C   0  0  0  0  0  0  0  0  0  0  0  0
   13.6166    7.0304   11.0962 O   0  0  0  0  0  0  0  0  0  0  0  0
   14.8580    8.7200   12.2389 C   0  0  0  0  0  0  0  0  0  0  0  0
   14.2922    8.4438   13.6082 C   0  0  0  0  0  0  0  0  0  0  0  0
   13.2273    7.5953   13.6622 F   0  0  0  0  0  0  0  0  0  0  0  0
   13.8547    9.5895   14.2218 F   0  0  0  0  0  0  0  0  0  0  0  0
   15.8048    9.7501   12.1496 C   0  0  0  0  0  0  0  0  0  0  0  0
  1  2  1  0
  2  3  1  0
  3  4  2  0
  4  5  1  0
  5  6  1  0
  5  7  2  0
  7  8  1  0
  8  9  2  0
  9 10  1  0
 10 11  2  0
 10 12  1  0
 12 13  1  0
 13 14  2  0
 14 15  1  0
 15 16  2  0
 16 17  1  0
 16 18  1  0
 18 19  1  0
 19 20  1  0
 19 21  1  0
 18 22  2  0
  9  3  1  0
 22 13  1  0
M  END
>  <HIPPO ID>  (178) 
94858

>  <alias>  (178) 
None

>  <ref_mols>  (178) 
c0935a,c1118a

>  <submitter_email>  (178) 
None

>  <ref_pdb>  (178) 
c0270a

>  <inchikey>  (178) 
NYCFOTNSYGHSAD-UHFFFAOYSA-N

>  <generation_date>  (178) 
None

>  <original ID>  (178) 
NYCFOTNSYGHSAD-UHFFFAOYSA-N

>  <tags>  (178) 
[]

>  <exports>  (178) 
nan

>  <method>  (178) 
None

>  <submitter_name>  (178) 
None

>  <original SMILES>  (178) 
COc1cc(Br)ccc1C(=O)Nc1ccc(O)c(C(F)F)c1

>  <ref_url>  (178) 
None

$$$$
YFVUJHGKDFXLSS-UHFFFAOYSA-N
     RDKit          3D

 22 23  0  0  0  0  0  0  0  0999 V2000
   21.7880   11.5886   10.3133 C   0  0  0  0  0  0  0  0  0  0  0  0
   20.4030   11.8088   10.6267 O   0  0  0  0  0  0  0  0  0  0  0  0
   20.1155   12.8839   11.4292 C   0  0  0  0  0  0  0  0  0  0  0  0
   21.0981   13.7981   11.8525 C   0  0  0  0  0  0  0  0  0  0  0  0
   20.7635   14.8830   12.6672 C   0  0  0  0  0  0  0  0  0  0  0  0
   22.0632   16.1183   13.2312 Br  0  0  0  0  0  0  0  0  0  0  0  0
   19.4657   15.0948   13.0818 C   0  0  0  0  0  0  0  0  0  0  0  0
   18.4910   14.2105   12.6741 C   0  0  0  0  0  0  0  0  0  0  0  0
   18.7867   13.1051   11.8437 C   0  0  0  0  0  0  0  0  0  0  0  0
   17.5662   12.3061   11.5615 C   0  0  0  0  0  0  0  0  0  0  0  0
   16.4738   12.8157   11.8233 O   0  0  0  0  0  0  0  0  0  0  0  0
   17.6480   11.0546   11.0062 N   0  0  0  0  0  0  0  0  0  0  0  0
   16.5301   10.1777   11.0214 C   0  0  0  0  0  0  0  0  0  0  0  0
   16.2670    9.4890    9.8363 C   0  0  0  0  0  0  0  0  0  0  0  0
   15.2469    8.5485    9.7496 C   0  0  0  0  0  0  0  0  0  0  0  0
   14.5839    8.1558   10.8867 C   0  0  0  0  0  0  0  0  0  0  0  0
   13.6686    7.1495   10.8516 O   0  0  0  0  0  0  0  0  0  0  0  0
   14.8228    8.8136   12.0789 C   0  0  0  0  0  0  0  0  0  0  0  0
   15.7178    9.8973   12.1402 C   0  0  0  0  0  0  0  0  0  0  0  0
   15.6673   10.6029   13.4407 C   0  0  0  0  0  0  0  0  0  0  0  0
   14.6744   10.6621   14.1500 O   0  0  0  0  0  0  0  0  0  0  0  0
   16.8112   11.1219   13.9047 O   0  0  0  0  0  0  0  0  0  0  0  0
  1  2  1  0
  2  3  1  0
  3  4  2  0
  4  5  1  0
  5  6  1  0
  5  7  2  0
  7  8  1  0
  8  9  2  0
  9 10  1  0
 10 11  2  0
 10 12  1  0
 12 13  1  0
 13 14  2  0
 14 15  1  0
 15 16  2  0
 16 17  1  0
 16 18  1  0
 18 19  2  0
 19 20  1  0
 20 21  2  0
 20 22  1  0
  9  3  1  0
 19 13  1  0
M  END
>  <HIPPO ID>  (179) 
94860

>  <alias>  (179) 
None

>  <ref_mols>  (179) 
c0935a,c1118a

>  <submitter_email>  (179) 
None

>  <ref_pdb>  (179) 
c0270a

>  <inchikey>  (179) 
YFVUJHGKDFXLSS-UHFFFAOYSA-N

>  <generation_date>  (179) 
None

>  <original ID>  (179) 
YFVUJHGKDFXLSS-UHFFFAOYSA-N

>  <tags>  (179) 
[]

>  <exports>  (179) 
nan

>  <method>  (179) 
None

>  <submitter_name>  (179) 
None

>  <original SMILES>  (179) 
COc1cc(Br)ccc1C(=O)Nc1ccc(O)cc1C(=O)O

>  <ref_url>  (179) 
None

$$$$
NUWKBBDDLGPYIE-UHFFFAOYSA-N
     RDKit          3D

 23 24  0  0  0  0  0  0  0  0999 V2000
   22.5027   11.1648   10.0842 C   0  0  0  0  0  0  0  0  0  0  0  0
   21.1455   11.7941   10.1875 C   0  0  0  0  0  0  0  0  0  0  0  0
   20.6424   11.7512   11.5184 O   0  0  0  0  0  0  0  0  0  0  0  0
   20.1471   12.9820   11.8723 C   0  0  0  0  0  0  0  0  0  0  0  0
   21.0729   14.0023   12.2136 C   0  0  0  0  0  0  0  0  0  0  0  0
   22.4615   13.8230   12.0659 N   0  0  0  0  0  0  0  0  0  0  0  0
   20.6117   15.2760   12.5458 C   0  0  0  0  0  0  0  0  0  0  0  0
   19.2572   15.5147   12.6932 C   0  0  0  0  0  0  0  0  0  0  0  0
   18.3582   14.4822   12.4781 C   0  0  0  0  0  0  0  0  0  0  0  0
   18.7771   13.2067   12.0469 C   0  0  0  0  0  0  0  0  0  0  0  0
   17.6719   12.2198   12.0410 C   0  0  0  0  0  0  0  0  0  0  0  0
   16.8080   12.4111   12.8991 O   0  0  0  0  0  0  0  0  0  0  0  0
   17.5409   11.2365   11.0708 N   0  0  0  0  0  0  0  0  0  0  0  0
   16.4947   10.2636   11.1440 C   0  0  0  0  0  0  0  0  0  0  0  0
   15.9231    9.7658    9.9751 C   0  0  0  0  0  0  0  0  0  0  0  0
   14.9196    8.7864   10.0440 C   0  0  0  0  0  0  0  0  0  0  0  0
   14.0941    8.5364    8.9133 C   0  0  0  0  0  0  0  0  0  0  0  0
   13.3314    8.4388    8.0488 N   0  0  0  0  0  0  0  0  0  0  0  0
   14.5934    8.1866   11.2580 C   0  0  0  0  0  0  0  0  0  0  0  0
   13.6987    7.1536   11.2938 O   0  0  0  0  0  0  0  0  0  0  0  0
   15.1273    8.6821   12.4298 C   0  0  0  0  0  0  0  0  0  0  0  0
   16.0271    9.7405   12.3658 C   0  0  0  0  0  0  0  0  0  0  0  0
   16.5400   10.1361   13.5358 F   0  0  0  0  0  0  0  0  0  0  0  0
  1  2  1  0
  2  3  1  0
  3  4  1  0
  4  5  2  0
  5  6  1  0
  5  7  1  0
  7  8  2  0
  8  9  1  0
  9 10  2  0
 10 11  1  0
 11 12  2  0
 11 13  1  0
 13 14  1  0
 14 15  2  0
 15 16  1  0
 16 17  1  0
 17 18  3  0
 16 19  2  0
 19 20  1  0
 19 21  1  0
 21 22  2  0
 22 23  1  0
 10  4  1  0
 22 14  1  0
M  END
>  <HIPPO ID>  (180) 
95119

>  <alias>  (180) 
None

>  <ref_mols>  (180) 
c0935a,c1118a

>  <submitter_email>  (180) 
None

>  <ref_pdb>  (180) 
c0270a

>  <inchikey>  (180) 
NUWKBBDDLGPYIE-UHFFFAOYSA-N

>  <generation_date>  (180) 
None

>  <original ID>  (180) 
NUWKBBDDLGPYIE-UHFFFAOYSA-N

>  <tags>  (180) 
[]

>  <exports>  (180) 
nan

>  <method>  (180) 
None

>  <submitter_name>  (180) 
None

>  <original SMILES>  (180) 
CCOc1c(N)cccc1C(=O)Nc1cc(C#N)c(O)cc1F

>  <ref_url>  (180) 
None

$$$$
GDIQVQDAOLAMHZ-UHFFFAOYSA-N
     RDKit          3D

 23 24  0  0  0  0  0  0  0  0999 V2000
   22.9859   12.0387    9.4364 C   0  0  0  0  0  0  0  0  0  0  0  0
   21.9389   13.0414    9.8776 C   0  0  0  0  0  0  0  0  0  0  0  0
   20.8974   12.3516   10.6369 O   0  0  0  0  0  0  0  0  0  0  0  0
   20.4279   13.1005   11.6942 C   0  0  0  0  0  0  0  0  0  0  0  0
   21.3502   13.7182   12.5834 C   0  0  0  0  0  0  0  0  0  0  0  0
   22.7363   13.4488   12.5486 N   0  0  0  0  0  0  0  0  0  0  0  0
   20.9372   14.7665   13.4083 C   0  0  0  0  0  0  0  0  0  0  0  0
   19.6024   15.0918   13.5110 C   0  0  0  0  0  0  0  0  0  0  0  0
   18.6786   14.3254   12.8236 C   0  0  0  0  0  0  0  0  0  0  0  0
   19.0543   13.2863   11.9338 C   0  0  0  0  0  0  0  0  0  0  0  0
   17.8439   12.5218   11.4920 C   0  0  0  0  0  0  0  0  0  0  0  0
   16.7434   13.0651   11.6447 O   0  0  0  0  0  0  0  0  0  0  0  0
   17.9006   11.2296   11.0038 N   0  0  0  0  0  0  0  0  0  0  0  0
   16.7369   10.3860   11.0510 C   0  0  0  0  0  0  0  0  0  0  0  0
   16.4556    9.5908    9.9373 C   0  0  0  0  0  0  0  0  0  0  0  0
   15.4276    8.6438    9.9415 C   0  0  0  0  0  0  0  0  0  0  0  0
   14.7375    8.3887   11.1029 C   0  0  0  0  0  0  0  0  0  0  0  0
   13.8488    7.3575   11.1092 O   0  0  0  0  0  0  0  0  0  0  0  0
   14.9602    9.1759   12.2190 C   0  0  0  0  0  0  0  0  0  0  0  0
   15.9030   10.2240   12.1819 C   0  0  0  0  0  0  0  0  0  0  0  0
   16.0189   11.0171   13.4288 C   0  0  0  0  0  0  0  0  0  0  0  0
   17.0191   11.4889   13.9313 O   0  0  0  0  0  0  0  0  0  0  0  0
   14.8175   11.1730   14.0239 O   0  0  0  0  0  0  0  0  0  0  0  0
  1  2  1  0
  2  3  1  0
  3  4  1  0
  4  5  2  0
  5  6  1  0
  5  7  1  0
  7  8  2  0
  8  9  1  0
  9 10  2  0
 10 11  1  0
 11 12  2  0
 11 13  1  0
 13 14  1  0
 14 15  2  0
 15 16  1  0
 16 17  2  0
 17 18  1  0
 17 19  1  0
 19 20  2  0
 20 21  1  0
 21 22  2  0
 21 23  1  0
 10  4  1  0
 20 14  1  0
M  END
>  <HIPPO ID>  (181) 
95121

>  <alias>  (181) 
None

>  <ref_mols>  (181) 
c0935a,c1118a

>  <submitter_email>  (181) 
None

>  <ref_pdb>  (181) 
c0270a

>  <inchikey>  (181) 
GDIQVQDAOLAMHZ-UHFFFAOYSA-N

>  <generation_date>  (181) 
None

>  <original ID>  (181) 
GDIQVQDAOLAMHZ-UHFFFAOYSA-N

>  <tags>  (181) 
[]

>  <exports>  (181) 
nan

>  <method>  (181) 
None

>  <submitter_name>  (181) 
None

>  <original SMILES>  (181) 
CCOc1c(N)cccc1C(=O)Nc1ccc(O)cc1C(=O)O

>  <ref_url>  (181) 
None

$$$$
GFKRNECVHDXUPQ-UHFFFAOYSA-N
     RDKit          3D

 23 24  0  0  0  0  0  0  0  0999 V2000
   22.2595   10.8919   10.2950 C   0  0  0  0  0  0  0  0  0  0  0  0
   21.1421   11.3073   11.1961 C   0  0  0  0  0  0  0  0  0  0  0  0
   20.2491   12.1228   10.4481 O   0  0  0  0  0  0  0  0  0  0  0  0
   19.9606   13.2460   11.1653 C   0  0  0  0  0  0  0  0  0  0  0  0
   20.8822   14.3150   11.1380 C   0  0  0  0  0  0  0  0  0  0  0  0
   22.1330   14.1761   10.5251 N   0  0  0  0  0  0  0  0  0  0  0  0
   20.6287   15.4271   11.9388 C   0  0  0  0  0  0  0  0  0  0  0  0
   19.4548   15.5258   12.6764 C   0  0  0  0  0  0  0  0  0  0  0  0
   18.5334   14.4909   12.6458 C   0  0  0  0  0  0  0  0  0  0  0  0
   18.7730   13.3324   11.8895 C   0  0  0  0  0  0  0  0  0  0  0  0
   17.7525   12.2732   12.0398 C   0  0  0  0  0  0  0  0  0  0  0  0
   17.1229   12.3144   13.0969 O   0  0  0  0  0  0  0  0  0  0  0  0
   17.5256   11.3490   11.0306 N   0  0  0  0  0  0  0  0  0  0  0  0
   16.5325   10.3353   11.0863 C   0  0  0  0  0  0  0  0  0  0  0  0
   16.2028    9.6245    9.9375 C   0  0  0  0  0  0  0  0  0  0  0  0
   15.2420    8.6114    9.9684 C   0  0  0  0  0  0  0  0  0  0  0  0
   14.6385    8.2526   11.1674 C   0  0  0  0  0  0  0  0  0  0  0  0
   13.7350    7.2327   11.1728 O   0  0  0  0  0  0  0  0  0  0  0  0
   14.9389    8.9447   12.3360 C   0  0  0  0  0  0  0  0  0  0  0  0
   14.2891    8.7355   13.6760 C   0  0  0  0  0  0  0  0  0  0  0  0
   13.4502    7.6701   13.7826 F   0  0  0  0  0  0  0  0  0  0  0  0
   15.1935    8.5953   14.6842 F   0  0  0  0  0  0  0  0  0  0  0  0
   15.8782    9.9857   12.2681 C   0  0  0  0  0  0  0  0  0  0  0  0
  1  2  1  0
  2  3  1  0
  3  4  1  0
  4  5  2  0
  5  6  1  0
  5  7  1  0
  7  8  2  0
  8  9  1  0
  9 10  2  0
 10 11  1  0
 11 12  2  0
 11 13  1  0
 13 14  1  0
 14 15  2  0
 15 16  1  0
 16 17  2  0
 17 18  1  0
 17 19  1  0
 19 20  1  0
 20 21  1  0
 20 22  1  0
 19 23  2  0
 10  4  1  0
 23 14  1  0
M  END
>  <HIPPO ID>  (182) 
95139

>  <alias>  (182) 
None

>  <ref_mols>  (182) 
c0935a,c1118a

>  <submitter_email>  (182) 
None

>  <ref_pdb>  (182) 
c0270a

>  <inchikey>  (182) 
GFKRNECVHDXUPQ-UHFFFAOYSA-N

>  <generation_date>  (182) 
None

>  <original ID>  (182) 
GFKRNECVHDXUPQ-UHFFFAOYSA-N

>  <tags>  (182) 
[]

>  <exports>  (182) 
nan

>  <method>  (182) 
None

>  <submitter_name>  (182) 
None

>  <original SMILES>  (182) 
CCOc1c(N)cccc1C(=O)Nc1ccc(O)c(C(F)F)c1

>  <ref_url>  (182) 
None

$$$$
RVONYHCTWCRDJF-UHFFFAOYSA-N
     RDKit          3D

 23 26  0  0  0  0  0  0  0  0999 V2000
   17.5861    4.6248   11.7796 O   0  0  0  0  0  0  0  0  0  0  0  0
   16.6935    3.9527   12.3041 C   0  0  0  0  0  0  0  0  0  0  0  0
   15.4063    3.8564   11.8370 N   0  0  0  0  0  0  0  0  0  0  0  0
   14.8226    4.8505   11.0935 C   0  0  0  0  0  0  0  0  0  0  0  0
   13.6798    4.6870   10.4199 N   0  0  0  0  0  0  0  0  0  0  0  0
   13.4006    5.9699    9.9456 O   0  0  0  0  0  0  0  0  0  0  0  0
   14.3948    6.7837   10.4146 C   0  0  0  0  0  0  0  0  0  0  0  0
   14.3782    8.3299   10.2801 C   0  0  0  0  0  0  0  0  0  0  0  0
   13.7460    8.9018    9.0312 C   0  0  0  0  0  0  0  0  0  0  0  0
   15.1990    9.1124    9.3066 C   0  0  0  0  0  0  0  0  0  0  0  0
   15.2920    6.1343   11.1195 N   0  0  0  0  0  0  0  0  0  0  0  0
   17.0224    3.1461   13.5154 C   0  0  0  0  0  0  0  0  0  0  0  0
   18.3623    2.8679   13.7282 C   0  0  0  0  0  0  0  0  0  0  0  0
   18.7418    2.2249   14.8825 C   0  0  0  0  0  0  0  0  0  0  0  0
   17.8678    1.8419   15.8241 N   0  0  0  0  0  0  0  0  0  0  0  0
   16.5577    2.0865   15.6212 C   0  0  0  0  0  0  0  0  0  0  0  0
   15.6433    1.7638   16.6275 N   0  0  0  0  0  0  0  0  0  0  0  0
   16.1627    0.9533   17.7364 C   0  0  0  0  0  0  0  0  0  0  0  0
   15.0986    0.7974   18.8400 C   0  0  0  0  0  0  0  0  0  0  0  0
   15.3486   -0.5823   19.3589 C   0  0  0  0  0  0  0  0  0  0  0  0
   16.1244   -1.2906   18.5327 C   0  0  0  0  0  0  0  0  0  0  0  0
   16.5143   -0.4927   17.3306 C   0  0  0  0  0  0  0  0  0  0  0  0
   16.0987    2.7520   14.4809 C   0  0  0  0  0  0  0  0  0  0  0  0
  1  2  2  0
  2  3  1  0
  3  4  1  0
  4  5  2  0
  5  6  1  0
  6  7  1  0
  7  8  1  0
  8  9  1  0
  9 10  1  0
  7 11  2  0
  2 12  1  0
 12 13  2  0
 13 14  1  0
 14 15  2  0
 15 16  1  0
 16 17  1  0
 17 18  1  0
 18 19  1  0
 19 20  1  0
 20 21  2  0
 21 22  1  0
 16 23  2  0
 11  4  1  0
 23 12  1  0
 10  8  1  0
 22 18  1  0
M  END
>  <HIPPO ID>  (183) 
98837

>  <alias>  (183) 
None

>  <ref_mols>  (183) 
c0316a,c0441a

>  <submitter_email>  (183) 
None

>  <ref_pdb>  (183) 
c0300a

>  <inchikey>  (183) 
RVONYHCTWCRDJF-UHFFFAOYSA-N

>  <generation_date>  (183) 
None

>  <original ID>  (183) 
RVONYHCTWCRDJF-UHFFFAOYSA-N

>  <tags>  (183) 
[]

>  <exports>  (183) 
['/opt/xchem-fragalysis-2/maxwin/CHIKV_HIPPO/hippo_prod/CHIKV_prod11_recipes/Recipe_1G8PPKY_poses.sdf']

>  <method>  (183) 
None

>  <submitter_name>  (183) 
None

>  <original SMILES>  (183) 
O=C(Nc1noc(C2CC2)n1)c1ccnc(NC2CC=CC2)c1

>  <ref_url>  (183) 
None

$$$$
QYWGYJFOJRFRHH-UHFFFAOYSA-N
     RDKit          3D

 23 25  0  0  0  0  0  0  0  0999 V2000
   13.7268    8.3834    8.7939 C   0  0  0  0  0  0  0  0  0  0  0  0
   13.9707    7.7139   10.1258 C   0  0  0  0  0  0  0  0  0  0  0  0
   14.9203    8.5850   10.9093 C   0  0  0  0  0  0  0  0  0  0  0  0
   14.3649    6.2933   10.1413 C   0  0  0  0  0  0  0  0  0  0  0  0
   15.2603    5.7252   10.9098 N   0  0  0  0  0  0  0  0  0  0  0  0
   14.9055    4.4121   10.8652 C   0  0  0  0  0  0  0  0  0  0  0  0
   15.4847    3.5039   11.7161 N   0  0  0  0  0  0  0  0  0  0  0  0
   16.6050    3.8577   12.4323 C   0  0  0  0  0  0  0  0  0  0  0  0
   17.4337    4.6787   12.0399 O   0  0  0  0  0  0  0  0  0  0  0  0
   16.8652    3.2499   13.7570 C   0  0  0  0  0  0  0  0  0  0  0  0
   17.9030    3.7801   14.5203 C   0  0  0  0  0  0  0  0  0  0  0  0
   18.1332    3.2423   15.7679 C   0  0  0  0  0  0  0  0  0  0  0  0
   17.4259    2.2213   16.2892 N   0  0  0  0  0  0  0  0  0  0  0  0
   16.4389    1.6987   15.5564 C   0  0  0  0  0  0  0  0  0  0  0  0
   15.7635    0.5637   15.9658 N   0  0  0  0  0  0  0  0  0  0  0  0
   15.8596   -0.0848   17.2636 C   0  0  0  0  0  0  0  0  0  0  0  0
   15.3985    0.7351   18.4685 C   0  0  0  0  0  0  0  0  0  0  0  0
   16.0841    0.0037   19.5853 C   0  0  0  0  0  0  0  0  0  0  0  0
   17.0774   -0.7725   19.1295 C   0  0  0  0  0  0  0  0  0  0  0  0
   17.2129   -0.6792   17.6374 C   0  0  0  0  0  0  0  0  0  0  0  0
   16.1141    2.2175   14.2991 C   0  0  0  0  0  0  0  0  0  0  0  0
   13.8651    4.1482   10.0720 N   0  0  0  0  0  0  0  0  0  0  0  0
   13.4982    5.4024    9.5846 O   0  0  0  0  0  0  0  0  0  0  0  0
  1  2  1  0
  2  3  1  0
  2  4  1  0
  4  5  2  0
  5  6  1  0
  6  7  1  0
  7  8  1  0
  8  9  2  0
  8 10  1  0
 10 11  2  0
 11 12  1  0
 12 13  2  0
 13 14  1  0
 14 15  1  0
 15 16  1  0
 16 17  1  0
 17 18  1  0
 18 19  2  0
 19 20  1  0
 14 21  2  0
  6 22  2  0
 22 23  1  0
 23  4  1  0
 21 10  1  0
 20 16  1  0
M  END
>  <HIPPO ID>  (184) 
98838

>  <alias>  (184) 
None

>  <ref_mols>  (184) 
c0316a,c0441a

>  <submitter_email>  (184) 
None

>  <ref_pdb>  (184) 
c0300a

>  <inchikey>  (184) 
QYWGYJFOJRFRHH-UHFFFAOYSA-N

>  <generation_date>  (184) 
None

>  <original ID>  (184) 
QYWGYJFOJRFRHH-UHFFFAOYSA-N

>  <tags>  (184) 
[]

>  <exports>  (184) 
['/opt/xchem-fragalysis-2/maxwin/CHIKV_HIPPO/hippo_prod/CHIKV_prod11_recipes/Recipe_1G8PPKY_poses.sdf']

>  <method>  (184) 
None

>  <submitter_name>  (184) 
None

>  <original SMILES>  (184) 
CC(C)c1nc(NC(=O)c2ccnc(NC3CC=CC3)c2)no1

>  <ref_url>  (184) 
None

$$$$
SFDTUZQHZKCPRN-UHFFFAOYSA-N
     RDKit          3D

 24 27  0  0  0  0  0  0  0  0999 V2000
   17.6023    4.6270   11.7745 O   0  0  0  0  0  0  0  0  0  0  0  0
   16.7306    3.9673   12.3491 C   0  0  0  0  0  0  0  0  0  0  0  0
   15.4243    3.8589   11.9271 N   0  0  0  0  0  0  0  0  0  0  0  0
   14.8077    4.8455   11.1987 C   0  0  0  0  0  0  0  0  0  0  0  0
   13.6007    4.7104   10.6392 N   0  0  0  0  0  0  0  0  0  0  0  0
   13.3881    5.9463   10.0224 O   0  0  0  0  0  0  0  0  0  0  0  0
   14.4780    6.7155   10.3164 C   0  0  0  0  0  0  0  0  0  0  0  0
   14.7891    8.0843    9.6751 C   0  0  0  0  0  0  0  0  0  0  0  0
   13.6481    8.7654    8.9074 C   0  0  0  0  0  0  0  0  0  0  0  0
   14.2766   10.0836    9.3654 C   0  0  0  0  0  0  0  0  0  0  0  0
   14.8021    9.3125   10.5762 C   0  0  0  0  0  0  0  0  0  0  0  0
   15.3442    6.0934   11.0839 N   0  0  0  0  0  0  0  0  0  0  0  0
   17.0931    3.2628   13.6189 C   0  0  0  0  0  0  0  0  0  0  0  0
   18.3014    3.6228   14.2057 C   0  0  0  0  0  0  0  0  0  0  0  0
   18.6710    3.0259   15.3915 C   0  0  0  0  0  0  0  0  0  0  0  0
   17.8997    2.1394   16.0431 N   0  0  0  0  0  0  0  0  0  0  0  0
   16.7063    1.8166   15.5092 C   0  0  0  0  0  0  0  0  0  0  0  0
   15.9083    0.8624   16.1395 N   0  0  0  0  0  0  0  0  0  0  0  0
   16.2275    0.5435   17.5328 C   0  0  0  0  0  0  0  0  0  0  0  0
   15.0008   -0.0390   18.2659 C   0  0  0  0  0  0  0  0  0  0  0  0
   15.5939   -1.0795   19.1580 C   0  0  0  0  0  0  0  0  0  0  0  0
   16.8486   -1.3730   18.8062 C   0  0  0  0  0  0  0  0  0  0  0  0
   17.2993   -0.5548   17.6373 C   0  0  0  0  0  0  0  0  0  0  0  0
   16.2831    2.3462   14.2875 C   0  0  0  0  0  0  0  0  0  0  0  0
  1  2  2  0
  2  3  1  0
  3  4  1  0
  4  5  2  0
  5  6  1  0
  6  7  1  0
  7  8  1  0
  8  9  1  0
  9 10  1  0
 10 11  1  0
  7 12  2  0
  2 13  1  0
 13 14  2  0
 14 15  1  0
 15 16  2  0
 16 17  1  0
 17 18  1  0
 18 19  1  0
 19 20  1  0
 20 21  1  0
 21 22  2  0
 22 23  1  0
 17 24  2  0
 12  4  1  0
 24 13  1  0
 11  8  1  0
 23 19  1  0
M  END
>  <HIPPO ID>  (185) 
98841

>  <alias>  (185) 
None

>  <ref_mols>  (185) 
c0316a,c0441a

>  <submitter_email>  (185) 
None

>  <ref_pdb>  (185) 
c0300a

>  <inchikey>  (185) 
SFDTUZQHZKCPRN-UHFFFAOYSA-N

>  <generation_date>  (185) 
None

>  <original ID>  (185) 
SFDTUZQHZKCPRN-UHFFFAOYSA-N

>  <tags>  (185) 
[]

>  <exports>  (185) 
['/opt/xchem-fragalysis-2/maxwin/CHIKV_HIPPO/hippo_prod/CHIKV_prod11_recipes/Recipe_1G8PPKY_poses.sdf']

>  <method>  (185) 
None

>  <submitter_name>  (185) 
None

>  <original SMILES>  (185) 
O=C(Nc1noc(C2CCC2)n1)c1ccnc(NC2CC=CC2)c1

>  <ref_url>  (185) 
None

$$$$
KDAPNLCPIPSDQD-SFHVURJKSA-N
     RDKit          3D

 26 29  0  0  0  0  0  0  0  0999 V2000
   13.6818    7.8631    9.4608 C   0  0  0  0  0  0  0  0  0  0  0  0
   13.8994    7.0712   10.7523 C   0  0  2  0  0  0  0  0  0  0  0  0
   14.6566    5.8491   10.4110 C   0  0  0  0  0  0  0  0  0  0  0  0
   15.6800    5.3708   11.0612 N   0  0  0  0  0  0  0  0  0  0  0  0
   15.4700    4.0439   10.9368 C   0  0  0  0  0  0  0  0  0  0  0  0
   16.0230    3.2269   11.8630 N   0  0  0  0  0  0  0  0  0  0  0  0
   17.1706    3.5742   12.5186 C   0  0  0  0  0  0  0  0  0  0  0  0
   18.0289    4.3459   12.0866 O   0  0  0  0  0  0  0  0  0  0  0  0
   17.3765    2.8807   13.8111 C   0  0  0  0  0  0  0  0  0  0  0  0
   18.6736    2.5463   14.1467 C   0  0  0  0  0  0  0  0  0  0  0  0
   18.9237    1.9686   15.3621 C   0  0  0  0  0  0  0  0  0  0  0  0
   17.9484    1.6773   16.2297 N   0  0  0  0  0  0  0  0  0  0  0  0
   16.6705    1.9538   15.8929 C   0  0  0  0  0  0  0  0  0  0  0  0
   15.6550    1.6765   16.8117 N   0  0  0  0  0  0  0  0  0  0  0  0
   16.0801    0.8654   17.9590 C   0  0  0  0  0  0  0  0  0  0  0  0
   14.9511    0.7372   18.9917 C   0  0  0  0  0  0  0  0  0  0  0  0
   15.1949   -0.6197   19.5691 C   0  0  0  0  0  0  0  0  0  0  0  0
   16.0044   -1.3531   18.7991 C   0  0  0  0  0  0  0  0  0  0  0  0
   16.4354   -0.5906   17.5894 C   0  0  0  0  0  0  0  0  0  0  0  0
   16.3464    2.5852   14.6974 C   0  0  0  0  0  0  0  0  0  0  0  0
   14.5270    3.6895   10.0633 N   0  0  0  0  0  0  0  0  0  0  0  0
   14.0046    4.9157    9.6554 O   0  0  0  0  0  0  0  0  0  0  0  0
   12.7165    6.5143   11.5729 C   0  0  0  0  0  0  0  0  0  0  0  0
   13.0812    6.8048   13.0161 C   0  0  0  0  0  0  0  0  0  0  0  0
   14.0382    7.8545   13.0442 O   0  0  0  0  0  0  0  0  0  0  0  0
   14.6767    7.9239   11.7639 C   0  0  0  0  0  0  0  0  0  0  0  0
  2  1  1  6
  2  3  1  0
  3  4  2  0
  4  5  1  0
  5  6  1  0
  6  7  1  0
  7  8  2  0
  7  9  1  0
  9 10  2  0
 10 11  1  0
 11 12  2  0
 12 13  1  0
 13 14  1  0
 14 15  1  0
 15 16  1  0
 16 17  1  0
 17 18  2  0
 18 19  1  0
 13 20  2  0
  5 21  2  0
 21 22  1  0
  2 23  1  0
 23 24  1  0
 24 25  1  0
 25 26  1  0
 26  2  1  0
 22  3  1  0
 20  9  1  0
 19 15  1  0
M  END
>  <HIPPO ID>  (186) 
98843

>  <alias>  (186) 
None

>  <ref_mols>  (186) 
c0316a,c0441a

>  <submitter_email>  (186) 
None

>  <ref_pdb>  (186) 
c0300a

>  <inchikey>  (186) 
KDAPNLCPIPSDQD-SFHVURJKSA-N

>  <generation_date>  (186) 
None

>  <original ID>  (186) 
KDAPNLCPIPSDQD-SFHVURJKSA-N

>  <tags>  (186) 
[]

>  <exports>  (186) 
['/opt/xchem-fragalysis-2/maxwin/CHIKV_HIPPO/hippo_prod/CHIKV_prod11_recipes/Recipe_1G8PPKY_poses.sdf']

>  <method>  (186) 
None

>  <submitter_name>  (186) 
None

>  <original SMILES>  (186) 
C[C@]1(c2nc(NC(=O)c3ccnc(NC4CC=CC4)c3)no2)CCOC1

>  <ref_url>  (186) 
None

$$$$
KDAPNLCPIPSDQD-GOSISDBHSA-N
     RDKit          3D

 26 29  0  0  0  0  0  0  0  0999 V2000
   13.6969    7.8804    9.4691 C   0  0  0  0  0  0  0  0  0  0  0  0
   13.8846    7.0663   10.7510 C   0  0  1  0  0  0  0  0  0  0  0  0
   14.6046    5.8255   10.4068 C   0  0  0  0  0  0  0  0  0  0  0  0
   15.6478    5.3526   11.0313 N   0  0  0  0  0  0  0  0  0  0  0  0
   15.4275    4.0266   10.9312 C   0  0  0  0  0  0  0  0  0  0  0  0
   15.9970    3.2175   11.8549 N   0  0  0  0  0  0  0  0  0  0  0  0
   17.1431    3.5761   12.5072 C   0  0  0  0  0  0  0  0  0  0  0  0
   17.9942    4.3566   12.0767 O   0  0  0  0  0  0  0  0  0  0  0  0
   17.3575    2.8863   13.8005 C   0  0  0  0  0  0  0  0  0  0  0  0
   18.6579    2.5598   14.1312 C   0  0  0  0  0  0  0  0  0  0  0  0
   18.9158    1.9835   15.3458 C   0  0  0  0  0  0  0  0  0  0  0  0
   17.9456    1.6881   16.2180 N   0  0  0  0  0  0  0  0  0  0  0  0
   16.6649    1.9584   15.8865 C   0  0  0  0  0  0  0  0  0  0  0  0
   15.6546    1.6787   16.8099 N   0  0  0  0  0  0  0  0  0  0  0  0
   16.0840    0.8664   17.9545 C   0  0  0  0  0  0  0  0  0  0  0  0
   14.9578    0.7348   18.9901 C   0  0  0  0  0  0  0  0  0  0  0  0
   15.2037   -0.6235   19.5635 C   0  0  0  0  0  0  0  0  0  0  0  0
   16.0124   -1.3541   18.7901 C   0  0  0  0  0  0  0  0  0  0  0  0
   16.4404   -0.5883   17.5813 C   0  0  0  0  0  0  0  0  0  0  0  0
   16.3327    2.5872   14.6917 C   0  0  0  0  0  0  0  0  0  0  0  0
   14.4575    3.6671   10.0900 N   0  0  0  0  0  0  0  0  0  0  0  0
   13.9196    4.8892    9.6908 O   0  0  0  0  0  0  0  0  0  0  0  0
   14.6788    7.8741   11.7728 C   0  0  0  0  0  0  0  0  0  0  0  0
   14.1433    7.4558   13.1184 C   0  0  0  0  0  0  0  0  0  0  0  0
   12.7728    7.1041   12.9081 O   0  0  0  0  0  0  0  0  0  0  0  0
   12.6761    6.5558   11.5784 C   0  0  0  0  0  0  0  0  0  0  0  0
  2  1  1  6
  2  3  1  0
  3  4  2  0
  4  5  1  0
  5  6  1  0
  6  7  1  0
  7  8  2  0
  7  9  1  0
  9 10  2  0
 10 11  1  0
 11 12  2  0
 12 13  1  0
 13 14  1  0
 14 15  1  0
 15 16  1  0
 16 17  1  0
 17 18  2  0
 18 19  1  0
 13 20  2  0
  5 21  2  0
 21 22  1  0
  2 23  1  0
 23 24  1  0
 24 25  1  0
 25 26  1  0
 26  2  1  0
 22  3  1  0
 20  9  1  0
 19 15  1  0
M  END
>  <HIPPO ID>  (187) 
98844

>  <alias>  (187) 
None

>  <ref_mols>  (187) 
c0316a,c0441a

>  <submitter_email>  (187) 
None

>  <ref_pdb>  (187) 
c0300a

>  <inchikey>  (187) 
KDAPNLCPIPSDQD-GOSISDBHSA-N

>  <generation_date>  (187) 
None

>  <original ID>  (187) 
KDAPNLCPIPSDQD-GOSISDBHSA-N

>  <tags>  (187) 
[]

>  <exports>  (187) 
['/opt/xchem-fragalysis-2/maxwin/CHIKV_HIPPO/hippo_prod/CHIKV_prod11_recipes/Recipe_1G8PPKY_poses.sdf']

>  <method>  (187) 
None

>  <submitter_name>  (187) 
None

>  <original SMILES>  (187) 
C[C@@]1(c2nc(NC(=O)c3ccnc(NC4CC=CC4)c3)no2)CCOC1

>  <ref_url>  (187) 
None

$$$$
LRNNKMIDGWTQJR-GOSISDBHSA-N
     RDKit          3D

 27 30  0  0  0  0  0  0  0  0999 V2000
   14.0377    8.7421    9.1283 C   0  0  0  0  0  0  0  0  0  0  0  0
   13.2302    7.7756    9.7846 O   0  0  0  0  0  0  0  0  0  0  0  0
   13.7896    7.1153   10.9192 C   0  0  2  0  0  0  0  0  0  0  0  0
   14.5491    5.9433   10.4315 C   0  0  0  0  0  0  0  0  0  0  0  0
   15.6070    5.4377   11.0104 N   0  0  0  0  0  0  0  0  0  0  0  0
   15.3757    4.1141   10.8721 C   0  0  0  0  0  0  0  0  0  0  0  0
   15.9424    3.2710   11.7722 N   0  0  0  0  0  0  0  0  0  0  0  0
   17.0897    3.6101   12.4369 C   0  0  0  0  0  0  0  0  0  0  0  0
   17.9445    4.3922   12.0144 O   0  0  0  0  0  0  0  0  0  0  0  0
   17.3062    2.9099   13.7266 C   0  0  0  0  0  0  0  0  0  0  0  0
   18.6122    2.6035   14.0557 C   0  0  0  0  0  0  0  0  0  0  0  0
   18.8857    2.0308   15.2693 C   0  0  0  0  0  0  0  0  0  0  0  0
   17.9252    1.7251   16.1481 N   0  0  0  0  0  0  0  0  0  0  0  0
   16.6399    1.9788   15.8230 C   0  0  0  0  0  0  0  0  0  0  0  0
   15.6419    1.6975   16.7594 N   0  0  0  0  0  0  0  0  0  0  0  0
   16.0849    0.8956   17.9077 C   0  0  0  0  0  0  0  0  0  0  0  0
   14.9625    0.7590   18.9486 C   0  0  0  0  0  0  0  0  0  0  0  0
   15.2101   -0.5998   19.5201 C   0  0  0  0  0  0  0  0  0  0  0  0
   16.0238   -1.3261   18.7478 C   0  0  0  0  0  0  0  0  0  0  0  0
   16.4530   -0.5579   17.5409 C   0  0  0  0  0  0  0  0  0  0  0  0
   16.2913    2.5967   14.6244 C   0  0  0  0  0  0  0  0  0  0  0  0
   14.3949    3.7928   10.0277 N   0  0  0  0  0  0  0  0  0  0  0  0
   13.8571    5.0347    9.6822 O   0  0  0  0  0  0  0  0  0  0  0  0
   12.7171    6.4963   11.8585 C   0  0  0  0  0  0  0  0  0  0  0  0
   13.3058    6.6527   13.2435 C   0  0  0  0  0  0  0  0  0  0  0  0
   14.0993    7.8322   13.2252 O   0  0  0  0  0  0  0  0  0  0  0  0
   14.6287    7.9704   11.8897 C   0  0  0  0  0  0  0  0  0  0  0  0
  1  2  1  0
  3  2  1  6
  3  4  1  0
  4  5  2  0
  5  6  1  0
  6  7  1  0
  7  8  1  0
  8  9  2  0
  8 10  1  0
 10 11  2  0
 11 12  1  0
 12 13  2  0
 13 14  1  0
 14 15  1  0
 15 16  1  0
 16 17  1  0
 17 18  1  0
 18 19  2  0
 19 20  1  0
 14 21  2  0
  6 22  2  0
 22 23  1  0
  3 24  1  0
 24 25  1  0
 25 26  1  0
 26 27  1  0
 27  3  1  0
 23  4  1  0
 21 10  1  0
 20 16  1  0
M  END
>  <HIPPO ID>  (188) 
98845

>  <alias>  (188) 
None

>  <ref_mols>  (188) 
c0316a,c0441a

>  <submitter_email>  (188) 
None

>  <ref_pdb>  (188) 
c0300a

>  <inchikey>  (188) 
LRNNKMIDGWTQJR-GOSISDBHSA-N

>  <generation_date>  (188) 
None

>  <original ID>  (188) 
LRNNKMIDGWTQJR-GOSISDBHSA-N

>  <tags>  (188) 
[]

>  <exports>  (188) 
['/opt/xchem-fragalysis-2/maxwin/CHIKV_HIPPO/hippo_prod/CHIKV_prod11_recipes/Recipe_1G8PPKY_poses.sdf']

>  <method>  (188) 
None

>  <submitter_name>  (188) 
None

>  <original SMILES>  (188) 
CO[C@]1(c2nc(NC(=O)c3ccnc(NC4CC=CC4)c3)no2)CCOC1

>  <ref_url>  (188) 
None

$$$$
LRNNKMIDGWTQJR-SFHVURJKSA-N
     RDKit          3D

 27 30  0  0  0  0  0  0  0  0999 V2000
   11.7523    6.1360   11.4409 C   0  0  0  0  0  0  0  0  0  0  0  0
   12.8514    6.9853   11.6903 O   0  0  0  0  0  0  0  0  0  0  0  0
   13.8572    7.2445   10.6943 C   0  0  1  0  0  0  0  0  0  0  0  0
   14.5256    5.9521   10.4552 C   0  0  0  0  0  0  0  0  0  0  0  0
   15.5155    5.4436   11.1381 N   0  0  0  0  0  0  0  0  0  0  0  0
   15.3213    4.1214   10.9556 C   0  0  0  0  0  0  0  0  0  0  0  0
   15.9045    3.2668   11.8308 N   0  0  0  0  0  0  0  0  0  0  0  0
   17.0654    3.6033   12.4724 C   0  0  0  0  0  0  0  0  0  0  0  0
   17.9169    4.3784   12.0308 O   0  0  0  0  0  0  0  0  0  0  0  0
   17.3001    2.9016   13.7562 C   0  0  0  0  0  0  0  0  0  0  0  0
   18.6094    2.5994   14.0751 C   0  0  0  0  0  0  0  0  0  0  0  0
   18.8894    2.0193   15.2838 C   0  0  0  0  0  0  0  0  0  0  0  0
   17.9336    1.7029   16.1654 N   0  0  0  0  0  0  0  0  0  0  0  0
   16.6461    1.9584   15.8497 C   0  0  0  0  0  0  0  0  0  0  0  0
   15.6510    1.6723   16.7876 N   0  0  0  0  0  0  0  0  0  0  0  0
   16.0969    0.8668   17.9304 C   0  0  0  0  0  0  0  0  0  0  0  0
   14.9794    0.7310   18.9760 C   0  0  0  0  0  0  0  0  0  0  0  0
   15.2286   -0.6288   19.5444 C   0  0  0  0  0  0  0  0  0  0  0  0
   16.0361   -1.3556   18.7660 C   0  0  0  0  0  0  0  0  0  0  0  0
   16.4588   -0.5864   17.5574 C   0  0  0  0  0  0  0  0  0  0  0  0
   16.2909    2.5831   14.6581 C   0  0  0  0  0  0  0  0  0  0  0  0
   14.3889    3.7997   10.0577 N   0  0  0  0  0  0  0  0  0  0  0  0
   13.8913    5.0412    9.6651 O   0  0  0  0  0  0  0  0  0  0  0  0
   13.5552    7.9990    9.4052 C   0  0  0  0  0  0  0  0  0  0  0  0
   14.7400    8.9281    9.2383 C   0  0  0  0  0  0  0  0  0  0  0  0
   15.0790    9.3245   10.5589 O   0  0  0  0  0  0  0  0  0  0  0  0
   14.8122    8.2052   11.4095 C   0  0  0  0  0  0  0  0  0  0  0  0
  1  2  1  0
  3  2  1  1
  3  4  1  0
  4  5  2  0
  5  6  1  0
  6  7  1  0
  7  8  1  0
  8  9  2  0
  8 10  1  0
 10 11  2  0
 11 12  1  0
 12 13  2  0
 13 14  1  0
 14 15  1  0
 15 16  1  0
 16 17  1  0
 17 18  1  0
 18 19  2  0
 19 20  1  0
 14 21  2  0
  6 22  2  0
 22 23  1  0
  3 24  1  0
 24 25  1  0
 25 26  1  0
 26 27  1  0
 27  3  1  0
 23  4  1  0
 21 10  1  0
 20 16  1  0
M  END
>  <HIPPO ID>  (189) 
98846

>  <alias>  (189) 
None

>  <ref_mols>  (189) 
c0316a,c0441a

>  <submitter_email>  (189) 
None

>  <ref_pdb>  (189) 
c0300a

>  <inchikey>  (189) 
LRNNKMIDGWTQJR-SFHVURJKSA-N

>  <generation_date>  (189) 
None

>  <original ID>  (189) 
LRNNKMIDGWTQJR-SFHVURJKSA-N

>  <tags>  (189) 
[]

>  <exports>  (189) 
['/opt/xchem-fragalysis-2/maxwin/CHIKV_HIPPO/hippo_prod/CHIKV_prod11_recipes/Recipe_1G8PPKY_poses.sdf']

>  <method>  (189) 
None

>  <submitter_name>  (189) 
None

>  <original SMILES>  (189) 
CO[C@@]1(c2nc(NC(=O)c3ccnc(NC4CC=CC4)c3)no2)CCOC1

>  <ref_url>  (189) 
None

$$$$
MSVKBAQPDUHEDM-UHFFFAOYSA-N
     RDKit          3D

 23 25  0  0  0  0  0  0  0  0999 V2000
   14.8330    0.5624   18.6221 C   0  0  0  0  0  0  0  0  0  0  0  0
   15.9007   -0.4785   18.4532 C   0  0  0  0  0  0  0  0  0  0  0  0
   15.7199   -1.7197   19.0696 C   0  0  0  0  0  0  0  0  0  0  0  0
   16.6921   -2.7006   18.9382 C   0  0  0  0  0  0  0  0  0  0  0  0
   17.8262   -2.5452   18.2241 N   0  0  0  0  0  0  0  0  0  0  0  0
   17.9837   -1.3391   17.6327 C   0  0  0  0  0  0  0  0  0  0  0  0
   17.0684   -0.2869   17.7075 C   0  0  0  0  0  0  0  0  0  0  0  0
   17.3950    0.9730   17.1476 N   0  0  0  0  0  0  0  0  0  0  0  0
   18.5404    1.6562   17.7273 C   0  0  0  0  0  0  0  0  0  0  0  0
   16.6482    1.4794   16.0842 C   0  0  0  0  0  0  0  0  0  0  0  0
   15.8469    0.7971   15.4542 O   0  0  0  0  0  0  0  0  0  0  0  0
   16.8539    2.9540   15.7942 C   0  0  0  0  0  0  0  0  0  0  0  0
   16.5600    3.3425   14.3807 C   0  0  0  0  0  0  0  0  0  0  0  0
   15.2793    3.7458   14.0122 C   0  0  0  0  0  0  0  0  0  0  0  0
   15.0250    4.0710   12.6771 C   0  0  0  0  0  0  0  0  0  0  0  0
   13.7823    4.5516   12.2346 C   0  0  0  0  0  0  0  0  0  0  0  0
   13.5288    4.7378   10.8755 C   0  0  0  0  0  0  0  0  0  0  0  0
   14.5039    4.4173    9.9442 C   0  0  0  0  0  0  0  0  0  0  0  0
   15.7398    3.9655   10.3802 C   0  0  0  0  0  0  0  0  0  0  0  0
   16.0450    3.8858   11.7440 C   0  0  0  0  0  0  0  0  0  0  0  0
   17.3078    3.6015   12.2501 C   0  0  0  0  0  0  0  0  0  0  0  0
   18.4153    3.6126   11.4695 O   0  0  0  0  0  0  0  0  0  0  0  0
   17.6066    3.3421   13.5258 N   0  0  0  0  0  0  0  0  0  0  0  0
  1  2  1  0
  2  3  2  0
  3  4  1  0
  4  5  2  0
  5  6  1  0
  6  7  2  0
  7  8  1  0
  8  9  1  0
  8 10  1  0
 10 11  2  0
 10 12  1  0
 12 13  1  0
 13 14  2  0
 14 15  1  0
 15 16  2  0
 16 17  1  0
 17 18  2  0
 18 19  1  0
 19 20  2  0
 20 21  1  0
 21 22  1  0
 21 23  2  0
  7  2  1  0
 23 13  1  0
 20 15  1  0
M  END
>  <HIPPO ID>  (190) 
100172

>  <alias>  (190) 
None

>  <ref_mols>  (190) 
c0305a,c1118a

>  <submitter_email>  (190) 
None

>  <ref_pdb>  (190) 
c0300a

>  <inchikey>  (190) 
MSVKBAQPDUHEDM-UHFFFAOYSA-N

>  <generation_date>  (190) 
None

>  <original ID>  (190) 
MSVKBAQPDUHEDM-UHFFFAOYSA-N

>  <tags>  (190) 
[]

>  <exports>  (190) 
nan

>  <method>  (190) 
None

>  <submitter_name>  (190) 
None

>  <original SMILES>  (190) 
Cc1ccncc1N(C)C(=O)Cc1cc2ccccc2c(O)n1

>  <ref_url>  (190) 
None

$$$$
KVAKLFGAJVRKCG-UHFFFAOYSA-N
     RDKit          3D

 14 15  0  0  0  0  0  0  0  0999 V2000
   13.4965    8.3894    9.0546 C   0  0  0  0  0  0  0  0  0  0  0  0
   14.8505    8.6470    9.6927 C   0  0  0  0  0  0  0  0  0  0  0  0
   15.6277    9.6867    8.9144 C   0  0  0  0  0  0  0  0  0  0  0  0
   14.8101    8.8597   11.2033 C   0  0  0  0  0  0  0  0  0  0  0  0
   14.8799    7.6917   12.0081 C   0  0  0  0  0  0  0  0  0  0  0  0
   14.9898    7.7354   13.3988 C   0  0  0  0  0  0  0  0  0  0  0  0
   15.0190    8.9550   14.0737 C   0  0  0  0  0  0  0  0  0  0  0  0
   14.8823   10.1364   13.3390 C   0  0  0  0  0  0  0  0  0  0  0  0
   14.8239   11.4250   13.8132 N   0  0  0  0  0  0  0  0  0  0  0  0
   14.5985   12.1650   12.7680 C   0  0  0  0  0  0  0  0  0  0  0  0
   14.5049   13.5037   12.7173 N   0  0  0  0  0  0  0  0  0  0  0  0
   14.5058   11.3898   11.6482 N   0  0  0  0  0  0  0  0  0  0  0  0
   13.9173   11.8998   10.4659 C   0  0  0  0  0  0  0  0  0  0  0  0
   14.7641   10.0766   11.9458 C   0  0  0  0  0  0  0  0  0  0  0  0
  1  2  1  0
  2  3  1  0
  2  4  1  0
  4  5  2  0
  5  6  1  0
  6  7  2  0
  7  8  1  0
  8  9  1  0
  9 10  2  0
 10 11  1  0
 10 12  1  0
 12 13  1  0
 12 14  1  0
 14  4  1  0
 14  8  2  0
M  END
>  <HIPPO ID>  (191) 
101625

>  <alias>  (191) 
None

>  <ref_mols>  (191) 
c0894a,c1134a

>  <submitter_email>  (191) 
None

>  <ref_pdb>  (191) 
c0300a

>  <inchikey>  (191) 
KVAKLFGAJVRKCG-UHFFFAOYSA-N

>  <generation_date>  (191) 
None

>  <original ID>  (191) 
KVAKLFGAJVRKCG-UHFFFAOYSA-N

>  <tags>  (191) 
[]

>  <exports>  (191) 
['/opt/xchem-fragalysis-2/maxwin/CHIKV_HIPPO/hippo_prod/CHIKV_prod11_recipes/Recipe_1G8PPKY_poses.sdf']

>  <method>  (191) 
None

>  <submitter_name>  (191) 
None

>  <original SMILES>  (191) 
CC(C)c1cccc2nc(N)n(C)c12

>  <ref_url>  (191) 
None

$$$$
YCAHODCZSZRFKI-UHFFFAOYSA-N
     RDKit          3D

 15 16  0  0  0  0  0  0  0  0999 V2000
   13.5392    8.5800    8.9563 C   0  0  0  0  0  0  0  0  0  0  0  0
   14.8578    8.5742    9.6995 C   0  0  0  0  0  0  0  0  0  0  0  0
   15.9236    9.4184    9.0505 C   0  0  0  0  0  0  0  0  0  0  0  0
   14.7934    8.8019   11.2035 C   0  0  0  0  0  0  0  0  0  0  0  0
   14.8866    7.6553   12.0255 C   0  0  0  0  0  0  0  0  0  0  0  0
   15.0291    7.7452   13.4058 C   0  0  0  0  0  0  0  0  0  0  0  0
   15.1942    6.6206   14.1065 F   0  0  0  0  0  0  0  0  0  0  0  0
   15.0468    8.9578   14.0760 C   0  0  0  0  0  0  0  0  0  0  0  0
   14.8894   10.1149   13.3179 C   0  0  0  0  0  0  0  0  0  0  0  0
   14.8382   11.4097   13.7678 N   0  0  0  0  0  0  0  0  0  0  0  0
   14.6104   12.1278   12.7100 C   0  0  0  0  0  0  0  0  0  0  0  0
   14.5112   13.4632   12.6335 N   0  0  0  0  0  0  0  0  0  0  0  0
   14.5305   11.3357   11.6016 N   0  0  0  0  0  0  0  0  0  0  0  0
   13.9564   11.8507   10.4171 C   0  0  0  0  0  0  0  0  0  0  0  0
   14.7625   10.0293   11.9250 C   0  0  0  0  0  0  0  0  0  0  0  0
  1  2  1  0
  2  3  1  0
  2  4  1  0
  4  5  2  0
  5  6  1  0
  6  7  1  0
  6  8  2  0
  8  9  1  0
  9 10  1  0
 10 11  2  0
 11 12  1  0
 11 13  1  0
 13 14  1  0
 13 15  1  0
 15  4  1  0
 15  9  2  0
M  END
>  <HIPPO ID>  (192) 
101691

>  <alias>  (192) 
None

>  <ref_mols>  (192) 
c0894a,c1134a

>  <submitter_email>  (192) 
None

>  <ref_pdb>  (192) 
c0300a

>  <inchikey>  (192) 
YCAHODCZSZRFKI-UHFFFAOYSA-N

>  <generation_date>  (192) 
None

>  <original ID>  (192) 
YCAHODCZSZRFKI-UHFFFAOYSA-N

>  <tags>  (192) 
[]

>  <exports>  (192) 
['/opt/xchem-fragalysis-2/maxwin/CHIKV_HIPPO/hippo_prod/CHIKV_prod11_recipes/Recipe_1G8PPKY_poses.sdf']

>  <method>  (192) 
None

>  <submitter_name>  (192) 
None

>  <original SMILES>  (192) 
CC(C)c1cc(F)cc2nc(N)n(C)c12

>  <ref_url>  (192) 
None

$$$$
BLAYPWXDWCKVHA-UHFFFAOYSA-N
     RDKit          3D

 15 16  0  0  0  0  0  0  0  0999 V2000
   14.4039   11.7254   10.3142 C   0  0  0  0  0  0  0  0  0  0  0  0
   14.5494   11.3648   11.6622 N   0  0  0  0  0  0  0  0  0  0  0  0
   14.5595   12.2410   12.7014 C   0  0  0  0  0  0  0  0  0  0  0  0
   14.4746   13.5710   12.5411 N   0  0  0  0  0  0  0  0  0  0  0  0
   14.7762   11.6088   13.8156 N   0  0  0  0  0  0  0  0  0  0  0  0
   14.8573   10.2833   13.4698 C   0  0  0  0  0  0  0  0  0  0  0  0
   15.0592    9.2019   14.3243 C   0  0  0  0  0  0  0  0  0  0  0  0
   15.0751    7.9288   13.7781 C   0  0  0  0  0  0  0  0  0  0  0  0
   14.8720    7.7395   12.4087 C   0  0  0  0  0  0  0  0  0  0  0  0
   14.6359    8.7908   11.4643 C   0  0  0  0  0  0  0  0  0  0  0  0
   14.4555    8.4127    9.9503 C   0  0  0  0  0  0  0  0  0  0  0  0
   13.5642    9.1346    8.9185 C   0  0  0  0  0  0  0  0  0  0  0  0
   13.9822    6.9357    9.8555 C   0  0  0  0  0  0  0  0  0  0  0  0
   15.8469    8.6671    9.4140 C   0  0  0  0  0  0  0  0  0  0  0  0
   14.6952   10.0742   12.0955 C   0  0  0  0  0  0  0  0  0  0  0  0
  1  2  1  0
  2  3  1  0
  3  4  1  0
  3  5  2  0
  5  6  1  0
  6  7  2  0
  7  8  1  0
  8  9  2  0
  9 10  1  0
 10 11  1  0
 11 12  1  0
 11 13  1  0
 11 14  1  0
 10 15  2  0
 15  2  1  0
 15  6  1  0
M  END
>  <HIPPO ID>  (193) 
101716

>  <alias>  (193) 
None

>  <ref_mols>  (193) 
c0894a,c1134a

>  <submitter_email>  (193) 
None

>  <ref_pdb>  (193) 
c0300a

>  <inchikey>  (193) 
BLAYPWXDWCKVHA-UHFFFAOYSA-N

>  <generation_date>  (193) 
None

>  <original ID>  (193) 
BLAYPWXDWCKVHA-UHFFFAOYSA-N

>  <tags>  (193) 
[]

>  <exports>  (193) 
['/opt/xchem-fragalysis-2/maxwin/CHIKV_HIPPO/hippo_prod/CHIKV_prod11_recipes/Recipe_1G8PPKY_poses.sdf']

>  <method>  (193) 
None

>  <submitter_name>  (193) 
None

>  <original SMILES>  (193) 
Cn1c(N)nc2cccc(C(C)(C)C)c21

>  <ref_url>  (193) 
None

$$$$
GRWYYZJONSMTSV-UHFFFAOYSA-N
     RDKit          3D

 16 17  0  0  0  0  0  0  0  0999 V2000
   14.3912   11.7068   10.2763 C   0  0  0  0  0  0  0  0  0  0  0  0
   14.5441   11.3481   11.6221 N   0  0  0  0  0  0  0  0  0  0  0  0
   14.5554   12.2297   12.6532 C   0  0  0  0  0  0  0  0  0  0  0  0
   14.4839   13.5548   12.4723 N   0  0  0  0  0  0  0  0  0  0  0  0
   14.7679   11.6059   13.7726 N   0  0  0  0  0  0  0  0  0  0  0  0
   14.8522   10.2791   13.4362 C   0  0  0  0  0  0  0  0  0  0  0  0
   15.0726    9.2073   14.2918 C   0  0  0  0  0  0  0  0  0  0  0  0
   15.1114    7.9531   13.7206 C   0  0  0  0  0  0  0  0  0  0  0  0
   15.3739    6.8918   14.4870 F   0  0  0  0  0  0  0  0  0  0  0  0
   14.9020    7.7464   12.3609 C   0  0  0  0  0  0  0  0  0  0  0  0
   14.6453    8.7900   11.4247 C   0  0  0  0  0  0  0  0  0  0  0  0
   14.4839    8.4225    9.9130 C   0  0  0  0  0  0  0  0  0  0  0  0
   14.0209    6.9443    9.8246 C   0  0  0  0  0  0  0  0  0  0  0  0
   13.5829    9.1306    8.8839 C   0  0  0  0  0  0  0  0  0  0  0  0
   15.8755    8.7029    9.3883 C   0  0  0  0  0  0  0  0  0  0  0  0
   14.6920   10.0658   12.0619 C   0  0  0  0  0  0  0  0  0  0  0  0
  1  2  1  0
  2  3  1  0
  3  4  1  0
  3  5  2  0
  5  6  1  0
  6  7  2  0
  7  8  1  0
  8  9  1  0
  8 10  2  0
 10 11  1  0
 11 12  1  0
 12 13  1  0
 12 14  1  0
 12 15  1  0
 11 16  2  0
 16  2  1  0
 16  6  1  0
M  END
>  <HIPPO ID>  (194) 
101983

>  <alias>  (194) 
None

>  <ref_mols>  (194) 
c0894a,c1134a

>  <submitter_email>  (194) 
None

>  <ref_pdb>  (194) 
c0300a

>  <inchikey>  (194) 
GRWYYZJONSMTSV-UHFFFAOYSA-N

>  <generation_date>  (194) 
None

>  <original ID>  (194) 
GRWYYZJONSMTSV-UHFFFAOYSA-N

>  <tags>  (194) 
[]

>  <exports>  (194) 
['/opt/xchem-fragalysis-2/maxwin/CHIKV_HIPPO/hippo_prod/CHIKV_prod11_recipes/Recipe_1G8PPKY_poses.sdf']

>  <method>  (194) 
None

>  <submitter_name>  (194) 
None

>  <original SMILES>  (194) 
Cn1c(N)nc2cc(F)cc(C(C)(C)C)c21

>  <ref_url>  (194) 
None

$$$$
JXRCCCJCUJURBQ-UHFFFAOYSA-N
     RDKit          3D

 16 17  0  0  0  0  0  0  0  0999 V2000
   15.8571   10.8075   13.4262 C   0  0  0  0  0  0  0  0  0  0  0  0
   15.6572    9.8467   12.2935 C   0  0  0  0  0  0  0  0  0  0  0  0
   14.9492    8.6565   12.5395 C   0  0  0  0  0  0  0  0  0  0  0  0
   14.5724    7.8137   11.4959 C   0  0  0  0  0  0  0  0  0  0  0  0
   14.8933    8.1550   10.1941 C   0  0  0  0  0  0  0  0  0  0  0  0
   15.6655    9.2848    9.9519 C   0  0  0  0  0  0  0  0  0  0  0  0
   15.9555    9.5167    8.6430 O   0  0  0  0  0  0  0  0  0  0  0  0
   16.0790   10.1442   10.9862 C   0  0  0  0  0  0  0  0  0  0  0  0
   16.7840   11.3403   10.6723 N   0  0  0  0  0  0  0  0  0  0  0  0
   18.0970   11.6969   11.0792 C   0  0  0  0  0  0  0  0  0  0  0  0
   19.1989   11.0509   10.5177 C   0  0  0  0  0  0  0  0  0  0  0  0
   20.5050   11.4291   10.8253 C   0  0  0  0  0  0  0  0  0  0  0  0
   20.7143   12.4684   11.7131 C   0  0  0  0  0  0  0  0  0  0  0  0
   22.0012   12.7449   12.0545 O   0  0  0  0  0  0  0  0  0  0  0  0
   19.6374   13.1708   12.2497 C   0  0  0  0  0  0  0  0  0  0  0  0
   18.3264   12.7852   11.9278 C   0  0  0  0  0  0  0  0  0  0  0  0
  1  2  1  0
  2  3  2  0
  3  4  1  0
  4  5  2  0
  5  6  1  0
  6  7  1  0
  6  8  2  0
  8  9  1  0
  9 10  1  0
 10 11  2  0
 11 12  1  0
 12 13  2  0
 13 14  1  0
 13 15  1  0
 15 16  2  0
  8  2  1  0
 16 10  1  0
M  END
>  <HIPPO ID>  (195) 
104911

>  <alias>  (195) 
None

>  <ref_mols>  (195) 
c0692a,c1116a

>  <submitter_email>  (195) 
None

>  <ref_pdb>  (195) 
c0270a

>  <inchikey>  (195) 
JXRCCCJCUJURBQ-UHFFFAOYSA-N

>  <generation_date>  (195) 
None

>  <original ID>  (195) 
JXRCCCJCUJURBQ-UHFFFAOYSA-N

>  <tags>  (195) 
[]

>  <exports>  (195) 
['/opt/xchem-fragalysis-2/maxwin/CHIKV_HIPPO/hippo_prod/CHIKV_prod11_recipes/Recipe_1G8PPKY_poses.sdf', '/opt/xchem-fragalysis-2/maxwin/CHIKV_HIPPO/web/web_resources/pose_sdfs/modal_c3625_poses.sdf']

>  <method>  (195) 
None

>  <submitter_name>  (195) 
None

>  <original SMILES>  (195) 
Cc1cccc(O)c1Nc1ccc(O)cc1

>  <ref_url>  (195) 
None

$$$$
IHKGCMGNDWCVOO-UHFFFAOYSA-N
     RDKit          3D

 19 20  0  0  0  0  0  0  0  0999 V2000
   15.1516   11.2231   14.1259 C   0  0  0  0  0  0  0  0  0  0  0  0
   16.2099   10.4695   13.5333 O   0  0  0  0  0  0  0  0  0  0  0  0
   15.7132    9.7014   12.5130 C   0  0  0  0  0  0  0  0  0  0  0  0
   15.0017    8.5300   12.8359 C   0  0  0  0  0  0  0  0  0  0  0  0
   14.4310    7.7590   11.8281 C   0  0  0  0  0  0  0  0  0  0  0  0
   13.3380    6.2633   12.1894 Br  0  0  0  0  0  0  0  0  0  0  0  0
   14.5450    8.1563   10.5169 C   0  0  0  0  0  0  0  0  0  0  0  0
   15.2282    9.3377   10.2078 C   0  0  0  0  0  0  0  0  0  0  0  0
   15.2514    9.6961    8.7749 C   0  0  0  0  0  0  0  0  0  0  0  0
   16.4631    9.1693    8.3337 O   0  0  0  0  0  0  0  0  0  0  0  0
   15.9229   10.0844   11.1858 C   0  0  0  0  0  0  0  0  0  0  0  0
   16.6501   11.2533   10.7879 N   0  0  0  0  0  0  0  0  0  0  0  0
   17.9570   11.6591   11.1882 C   0  0  0  0  0  0  0  0  0  0  0  0
   19.0670   11.0475   10.5879 C   0  0  0  0  0  0  0  0  0  0  0  0
   20.3690   11.4809   10.8346 C   0  0  0  0  0  0  0  0  0  0  0  0
   20.5677   12.5499   11.6884 C   0  0  0  0  0  0  0  0  0  0  0  0
   21.8198   12.9440   11.9486 F   0  0  0  0  0  0  0  0  0  0  0  0
   19.4824   13.1959   12.2819 C   0  0  0  0  0  0  0  0  0  0  0  0
   18.1723   12.7455   12.0389 C   0  0  0  0  0  0  0  0  0  0  0  0
  1  2  1  0
  2  3  1  0
  3  4  2  0
  4  5  1  0
  5  6  1  0
  5  7  2  0
  7  8  1  0
  8  9  1  0
  9 10  1  0
  8 11  2  0
 11 12  1  0
 12 13  1  0
 13 14  2  0
 14 15  1  0
 15 16  2  0
 16 17  1  0
 16 18  1  0
 18 19  2  0
 11  3  1  0
 19 13  1  0
M  END
>  <HIPPO ID>  (196) 
106637

>  <alias>  (196) 
None

>  <ref_mols>  (196) 
c0692a,c1116a

>  <submitter_email>  (196) 
None

>  <ref_pdb>  (196) 
c0270a

>  <inchikey>  (196) 
IHKGCMGNDWCVOO-UHFFFAOYSA-N

>  <generation_date>  (196) 
None

>  <original ID>  (196) 
IHKGCMGNDWCVOO-UHFFFAOYSA-N

>  <tags>  (196) 
[]

>  <exports>  (196) 
nan

>  <method>  (196) 
None

>  <submitter_name>  (196) 
None

>  <original SMILES>  (196) 
COc1cc(Br)cc(CO)c1Nc1ccc(F)cc1

>  <ref_url>  (196) 
None

$$$$
BTUZCILRWKAQBH-UHFFFAOYSA-N
     RDKit          3D

 20 21  0  0  0  0  0  0  0  0999 V2000
   15.1718   11.4833   14.0918 C   0  0  0  0  0  0  0  0  0  0  0  0
   16.2852   10.7862   13.5310 O   0  0  0  0  0  0  0  0  0  0  0  0
   15.8465    9.9005   12.5823 C   0  0  0  0  0  0  0  0  0  0  0  0
   15.1911    8.7376   13.0133 C   0  0  0  0  0  0  0  0  0  0  0  0
   14.6854    7.8286   12.0944 C   0  0  0  0  0  0  0  0  0  0  0  0
   14.7952    8.1091   10.7457 C   0  0  0  0  0  0  0  0  0  0  0  0
   15.4495    9.2802   10.3137 C   0  0  0  0  0  0  0  0  0  0  0  0
   15.4710    9.5392    8.8492 C   0  0  0  0  0  0  0  0  0  0  0  0
   16.6521    9.2019    8.3067 F   0  0  0  0  0  0  0  0  0  0  0  0
   15.2408   10.8403    8.5430 F   0  0  0  0  0  0  0  0  0  0  0  0
   14.5134    8.8433    8.1895 F   0  0  0  0  0  0  0  0  0  0  0  0
   16.0726   10.1574   11.2246 C   0  0  0  0  0  0  0  0  0  0  0  0
   16.7831   11.3097   10.7678 N   0  0  0  0  0  0  0  0  0  0  0  0
   18.1021   11.7074   11.1425 C   0  0  0  0  0  0  0  0  0  0  0  0
   19.1920   11.0680   10.5429 C   0  0  0  0  0  0  0  0  0  0  0  0
   20.5047   11.4782   10.7708 C   0  0  0  0  0  0  0  0  0  0  0  0
   20.7441   12.5655   11.5982 C   0  0  0  0  0  0  0  0  0  0  0  0
   19.6722   13.2356   12.1965 C   0  0  0  0  0  0  0  0  0  0  0  0
   20.0284   14.6351   13.2378 S   0  0  0  0  0  0  0  0  0  0  0  0
   18.3499   12.8054   11.9724 C   0  0  0  0  0  0  0  0  0  0  0  0
  1  2  1  0
  2  3  1  0
  3  4  2  0
  4  5  1  0
  5  6  2  0
  6  7  1  0
  7  8  1  0
  8  9  1  0
  8 10  1  0
  8 11  1  0
  7 12  2  0
 12 13  1  0
 13 14  1  0
 14 15  2  0
 15 16  1  0
 16 17  2  0
 17 18  1  0
 18 19  1  0
 18 20  2  0
 12  3  1  0
 20 14  1  0
M  END
>  <HIPPO ID>  (197) 
107392

>  <alias>  (197) 
None

>  <ref_mols>  (197) 
c0692a,c1116a

>  <submitter_email>  (197) 
None

>  <ref_pdb>  (197) 
c0270a

>  <inchikey>  (197) 
BTUZCILRWKAQBH-UHFFFAOYSA-N

>  <generation_date>  (197) 
None

>  <original ID>  (197) 
BTUZCILRWKAQBH-UHFFFAOYSA-N

>  <tags>  (197) 
[]

>  <exports>  (197) 
nan

>  <method>  (197) 
None

>  <submitter_name>  (197) 
None

>  <original SMILES>  (197) 
COc1cccc(C(F)(F)F)c1Nc1cccc(S)c1

>  <ref_url>  (197) 
None

$$$$
CWYBCCLOOJLHTO-UHFFFAOYSA-N
     RDKit          3D

 21 22  0  0  0  0  0  0  0  0999 V2000
   22.5918   12.0512   12.5735 C   0  0  0  0  0  0  0  0  0  0  0  0
   21.8587   13.0756   11.8939 O   0  0  0  0  0  0  0  0  0  0  0  0
   20.5311   12.7833   11.7901 C   0  0  0  0  0  0  0  0  0  0  0  0
   20.0959   11.7748   10.9597 C   0  0  0  0  0  0  0  0  0  0  0  0
   18.7219   11.4769   10.8918 C   0  0  0  0  0  0  0  0  0  0  0  0
   18.4318   10.3503   10.0456 C   0  0  0  0  0  0  0  0  0  0  0  0
   17.6170    9.4993   10.3445 O   0  0  0  0  0  0  0  0  0  0  0  0
   17.7394   12.1690   11.5985 C   0  0  0  0  0  0  0  0  0  0  0  0
   16.3117   11.9826   11.4627 N   0  0  0  0  0  0  0  0  0  0  0  0
   15.5959   10.7491   11.2948 C   0  0  0  0  0  0  0  0  0  0  0  0
   15.1516   10.3258   10.0237 C   0  0  0  0  0  0  0  0  0  0  0  0
   14.6094    9.0489    9.8344 C   0  0  0  0  0  0  0  0  0  0  0  0
   14.1491    8.7030    8.5987 O   0  0  0  0  0  0  0  0  0  0  0  0
   14.5163    8.1562   10.8919 C   0  0  0  0  0  0  0  0  0  0  0  0
   14.9008    8.5745   12.1680 C   0  0  0  0  0  0  0  0  0  0  0  0
   15.4089    9.8653   12.3692 C   0  0  0  0  0  0  0  0  0  0  0  0
   15.8002   10.3529   13.9771 Cl  0  0  0  0  0  0  0  0  0  0  0  0
   18.2162   13.2607   12.3596 C   0  0  0  0  0  0  0  0  0  0  0  0
   17.2473   13.9586   13.0393 O   0  0  0  0  0  0  0  0  0  0  0  0
   17.5373   15.3310   13.2665 C   0  0  0  0  0  0  0  0  0  0  0  0
   19.5941   13.5539   12.4670 C   0  0  0  0  0  0  0  0  0  0  0  0
  1  2  1  0
  2  3  1  0
  3  4  2  0
  4  5  1  0
  5  6  1  0
  6  7  2  0
  5  8  2  0
  8  9  1  0
  9 10  1  0
 10 11  2  0
 11 12  1  0
 12 13  1  0
 12 14  2  0
 14 15  1  0
 15 16  2  0
 16 17  1  0
  8 18  1  0
 18 19  1  0
 19 20  1  0
 18 21  2  0
 21  3  1  0
 16 10  1  0
M  END
>  <HIPPO ID>  (198) 
108483

>  <alias>  (198) 
None

>  <ref_mols>  (198) 
c0692a,c1116a

>  <submitter_email>  (198) 
None

>  <ref_pdb>  (198) 
c0270a

>  <inchikey>  (198) 
CWYBCCLOOJLHTO-UHFFFAOYSA-N

>  <generation_date>  (198) 
None

>  <original ID>  (198) 
CWYBCCLOOJLHTO-UHFFFAOYSA-N

>  <tags>  (198) 
[]

>  <exports>  (198) 
nan

>  <method>  (198) 
None

>  <submitter_name>  (198) 
None

>  <original SMILES>  (198) 
COc1cc(C=O)c(Nc2cc(O)ccc2Cl)c(OC)c1

>  <ref_url>  (198) 
None

$$$$
DWKUGAPMNGYEBZ-ZETCQYMHSA-N
     RDKit          3D

 14 15  0  0  0  0  0  0  0  0999 V2000
   16.3476   11.3925   13.1434 N   0  0  0  0  0  0  0  0  0  0  0  0
   15.9536   10.5545   12.0659 C   0  0  0  0  0  0  0  0  0  0  0  0
   15.0114    9.5500   12.3209 C   0  0  0  0  0  0  0  0  0  0  0  0
   14.2746    9.5473   13.8753 Cl  0  0  0  0  0  0  0  0  0  0  0  0
   14.6707    8.5818   11.3739 C   0  0  0  0  0  0  0  0  0  0  0  0
   15.2338    8.6382   10.1131 C   0  0  0  0  0  0  0  0  0  0  0  0
   16.2461    9.5618    9.8725 C   0  0  0  0  0  0  0  0  0  0  0  0
   16.6593   10.4770   10.8561 C   0  0  0  0  0  0  0  0  0  0  0  0
   17.8828   11.1482   10.6316 N   0  0  0  0  0  0  0  0  0  0  0  0
   18.3499   12.2620   11.2943 C   0  0  0  0  0  0  0  0  0  0  0  0
   17.6444   13.1361   11.7900 O   0  0  0  0  0  0  0  0  0  0  0  0
   19.8225   12.3398   11.4599 C   0  0  2  0  0  0  0  0  0  0  0  0
   20.7798   13.0200   10.5412 C   0  0  0  0  0  0  0  0  0  0  0  0
   20.5637   11.6037   10.4763 O   0  0  0  0  0  0  0  0  0  0  0  0
  1  2  1  0
  2  3  2  0
  3  4  1  0
  3  5  1  0
  5  6  2  0
  6  7  1  0
  7  8  2  0
  8  9  1  0
  9 10  1  0
 10 11  2  0
 12 10  1  6
 12 13  1  0
 13 14  1  0
  8  2  1  0
 14 12  1  0
M  END
>  <HIPPO ID>  (199) 
111402

>  <alias>  (199) 
None

>  <ref_mols>  (199) 
c0692a,c1116a

>  <submitter_email>  (199) 
None

>  <ref_pdb>  (199) 
c0270a

>  <inchikey>  (199) 
DWKUGAPMNGYEBZ-ZETCQYMHSA-N

>  <generation_date>  (199) 
None

>  <original ID>  (199) 
DWKUGAPMNGYEBZ-ZETCQYMHSA-N

>  <tags>  (199) 
[]

>  <exports>  (199) 
nan

>  <method>  (199) 
None

>  <submitter_name>  (199) 
None

>  <original SMILES>  (199) 
Nc1c(Cl)cccc1NC(=O)[C@@H]1CO1

>  <ref_url>  (199) 
None

$$$$
QPFFXTAITBJALQ-QMMMGPOBSA-N
     RDKit          3D

 14 15  0  0  0  0  0  0  0  0999 V2000
   16.2996    9.4405    8.7485 N   0  0  0  0  0  0  0  0  0  0  0  0
   16.0187    9.4138   10.0999 C   0  0  0  0  0  0  0  0  0  0  0  0
   15.1256    8.4385   10.5418 C   0  0  0  0  0  0  0  0  0  0  0  0
   14.6079    8.5252   11.8172 C   0  0  0  0  0  0  0  0  0  0  0  0
   14.8472    9.6785   12.5553 C   0  0  0  0  0  0  0  0  0  0  0  0
   14.1498    9.9252   13.6629 F   0  0  0  0  0  0  0  0  0  0  0  0
   15.7601   10.6314   12.1575 C   0  0  0  0  0  0  0  0  0  0  0  0
   16.4249   10.4562   10.9580 C   0  0  0  0  0  0  0  0  0  0  0  0
   17.6097   11.1766   10.6671 N   0  0  0  0  0  0  0  0  0  0  0  0
   18.0944   12.2458   11.3988 C   0  0  0  0  0  0  0  0  0  0  0  0
   17.4036   13.0480   12.0153 O   0  0  0  0  0  0  0  0  0  0  0  0
   19.5740   12.3488   11.5167 C   0  0  2  0  0  0  0  0  0  0  0  0
   20.5320   12.9928   10.5767 C   0  0  0  0  0  0  0  0  0  0  0  0
   20.2952   11.5811   10.5400 O   0  0  0  0  0  0  0  0  0  0  0  0
  1  2  1  0
  2  3  2  0
  3  4  1  0
  4  5  2  0
  5  6  1  0
  5  7  1  0
  7  8  2  0
  8  9  1  0
  9 10  1  0
 10 11  2  0
 12 10  1  6
 12 13  1  0
 13 14  1  0
  8  2  1  0
 14 12  1  0
M  END
>  <HIPPO ID>  (200) 
111417

>  <alias>  (200) 
None

>  <ref_mols>  (200) 
c0692a,c1116a

>  <submitter_email>  (200) 
None

>  <ref_pdb>  (200) 
c0270a

>  <inchikey>  (200) 
QPFFXTAITBJALQ-QMMMGPOBSA-N

>  <generation_date>  (200) 
None

>  <original ID>  (200) 
QPFFXTAITBJALQ-QMMMGPOBSA-N

>  <tags>  (200) 
[]

>  <exports>  (200) 
nan

>  <method>  (200) 
None

>  <submitter_name>  (200) 
None

>  <original SMILES>  (200) 
Nc1ccc(F)cc1NC(=O)[C@@H]1CO1

>  <ref_url>  (200) 
None

$$$$
QPFFXTAITBJALQ-MRVPVSSYSA-N
     RDKit          3D

 14 15  0  0  0  0  0  0  0  0999 V2000
   16.2757    9.4434    8.6202 N   0  0  0  0  0  0  0  0  0  0  0  0
   15.8538    9.4405    9.9444 C   0  0  0  0  0  0  0  0  0  0  0  0
   15.0088    8.4093   10.3440 C   0  0  0  0  0  0  0  0  0  0  0  0
   14.5480    8.3818   11.6456 C   0  0  0  0  0  0  0  0  0  0  0  0
   14.8592    9.4454   12.4856 C   0  0  0  0  0  0  0  0  0  0  0  0
   14.2156    9.6070   13.6400 F   0  0  0  0  0  0  0  0  0  0  0  0
   15.7916   10.3998   12.1461 C   0  0  0  0  0  0  0  0  0  0  0  0
   16.3797   10.3316   10.9000 C   0  0  0  0  0  0  0  0  0  0  0  0
   17.5385   11.0606   10.5798 N   0  0  0  0  0  0  0  0  0  0  0  0
   18.1824   11.9976   11.3615 C   0  0  0  0  0  0  0  0  0  0  0  0
   17.7397   12.5339   12.3681 O   0  0  0  0  0  0  0  0  0  0  0  0
   19.5089   12.4130   10.8391 C   0  0  1  0  0  0  0  0  0  0  0  0
   20.8585   11.9536   11.3273 C   0  0  0  0  0  0  0  0  0  0  0  0
   20.2260   11.3316   10.2143 O   0  0  0  0  0  0  0  0  0  0  0  0
  1  2  1  0
  2  3  2  0
  3  4  1  0
  4  5  2  0
  5  6  1  0
  5  7  1  0
  7  8  2  0
  8  9  1  0
  9 10  1  0
 10 11  2  0
 12 10  1  1
 12 13  1  0
 13 14  1  0
  8  2  1  0
 14 12  1  0
M  END
>  <HIPPO ID>  (201) 
111418

>  <alias>  (201) 
None

>  <ref_mols>  (201) 
c0692a,c1116a

>  <submitter_email>  (201) 
None

>  <ref_pdb>  (201) 
c0270a

>  <inchikey>  (201) 
QPFFXTAITBJALQ-MRVPVSSYSA-N

>  <generation_date>  (201) 
None

>  <original ID>  (201) 
QPFFXTAITBJALQ-MRVPVSSYSA-N

>  <tags>  (201) 
[]

>  <exports>  (201) 
nan

>  <method>  (201) 
None

>  <submitter_name>  (201) 
None

>  <original SMILES>  (201) 
Nc1ccc(F)cc1NC(=O)[C@H]1CO1

>  <ref_url>  (201) 
None

$$$$
JCBSKLSMFQXPRV-QMMMGPOBSA-N
     RDKit          3D

 14 15  0  0  0  0  0  0  0  0999 V2000
   16.2954    9.4691    8.6065 N   0  0  0  0  0  0  0  0  0  0  0  0
   15.9074    9.5064    9.9393 C   0  0  0  0  0  0  0  0  0  0  0  0
   15.0539    8.4924   10.3744 C   0  0  0  0  0  0  0  0  0  0  0  0
   14.6683    8.4413   11.7023 C   0  0  0  0  0  0  0  0  0  0  0  0
   15.0690    9.4632   12.5545 C   0  0  0  0  0  0  0  0  0  0  0  0
   14.4845    9.5635   14.4978 I   0  0  0  0  0  0  0  0  0  0  0  0
   15.9455   10.4512   12.1410 C   0  0  0  0  0  0  0  0  0  0  0  0
   16.4632   10.4095   10.8612 C   0  0  0  0  0  0  0  0  0  0  0  0
   17.6409   11.1357   10.5628 N   0  0  0  0  0  0  0  0  0  0  0  0
   18.1377   12.1814   11.3259 C   0  0  0  0  0  0  0  0  0  0  0  0
   17.4433   12.9675   11.9616 O   0  0  0  0  0  0  0  0  0  0  0  0
   19.6153   12.2842   11.4506 C   0  0  2  0  0  0  0  0  0  0  0  0
   20.5723   12.9658   10.5375 C   0  0  0  0  0  0  0  0  0  0  0  0
   20.3435   11.5532   10.4558 O   0  0  0  0  0  0  0  0  0  0  0  0
  1  2  1  0
  2  3  2  0
  3  4  1  0
  4  5  2  0
  5  6  1  0
  5  7  1  0
  7  8  2  0
  8  9  1  0
  9 10  1  0
 10 11  2  0
 12 10  1  6
 12 13  1  0
 13 14  1  0
  8  2  1  0
 14 12  1  0
M  END
>  <HIPPO ID>  (202) 
111421

>  <alias>  (202) 
None

>  <ref_mols>  (202) 
c0692a,c1116a

>  <submitter_email>  (202) 
None

>  <ref_pdb>  (202) 
c0270a

>  <inchikey>  (202) 
JCBSKLSMFQXPRV-QMMMGPOBSA-N

>  <generation_date>  (202) 
None

>  <original ID>  (202) 
JCBSKLSMFQXPRV-QMMMGPOBSA-N

>  <tags>  (202) 
[]

>  <exports>  (202) 
nan

>  <method>  (202) 
None

>  <submitter_name>  (202) 
None

>  <original SMILES>  (202) 
Nc1ccc(I)cc1NC(=O)[C@@H]1CO1

>  <ref_url>  (202) 
None

$$$$
JCBSKLSMFQXPRV-MRVPVSSYSA-N
     RDKit          3D

 14 15  0  0  0  0  0  0  0  0999 V2000
   16.2260    9.4417    8.6001 N   0  0  0  0  0  0  0  0  0  0  0  0
   15.8354    9.4347    9.9346 C   0  0  0  0  0  0  0  0  0  0  0  0
   14.9838    8.4128   10.3502 C   0  0  0  0  0  0  0  0  0  0  0  0
   14.6171    8.3240   11.6834 C   0  0  0  0  0  0  0  0  0  0  0  0
   15.0427    9.3124   12.5643 C   0  0  0  0  0  0  0  0  0  0  0  0
   14.4538    9.3864   14.5105 I   0  0  0  0  0  0  0  0  0  0  0  0
   15.9312   10.2969   12.1719 C   0  0  0  0  0  0  0  0  0  0  0  0
   16.4183   10.2928   10.8825 C   0  0  0  0  0  0  0  0  0  0  0  0
   17.5641   11.0323   10.5368 N   0  0  0  0  0  0  0  0  0  0  0  0
   18.2158   11.9745   11.3091 C   0  0  0  0  0  0  0  0  0  0  0  0
   17.7738   12.5315   12.3053 O   0  0  0  0  0  0  0  0  0  0  0  0
   19.5486   12.3723   10.7922 C   0  0  1  0  0  0  0  0  0  0  0  0
   20.8881   11.9140   11.3080 C   0  0  0  0  0  0  0  0  0  0  0  0
   20.2687   11.2781   10.1952 O   0  0  0  0  0  0  0  0  0  0  0  0
  1  2  1  0
  2  3  2  0
  3  4  1  0
  4  5  2  0
  5  6  1  0
  5  7  1  0
  7  8  2  0
  8  9  1  0
  9 10  1  0
 10 11  2  0
 12 10  1  1
 12 13  1  0
 13 14  1  0
  8  2  1  0
 14 12  1  0
M  END
>  <HIPPO ID>  (203) 
111422

>  <alias>  (203) 
None

>  <ref_mols>  (203) 
c0692a,c1116a

>  <submitter_email>  (203) 
None

>  <ref_pdb>  (203) 
c0270a

>  <inchikey>  (203) 
JCBSKLSMFQXPRV-MRVPVSSYSA-N

>  <generation_date>  (203) 
None

>  <original ID>  (203) 
JCBSKLSMFQXPRV-MRVPVSSYSA-N

>  <tags>  (203) 
[]

>  <exports>  (203) 
nan

>  <method>  (203) 
None

>  <submitter_name>  (203) 
None

>  <original SMILES>  (203) 
Nc1ccc(I)cc1NC(=O)[C@H]1CO1

>  <ref_url>  (203) 
None

$$$$
DJWCDCZOHPOQHO-LURJTMIESA-N
     RDKit          3D

 15 16  0  0  0  0  0  0  0  0999 V2000
   16.1951   11.1099   13.1343 N   0  0  0  0  0  0  0  0  0  0  0  0
   15.8407   10.3147   12.0093 C   0  0  0  0  0  0  0  0  0  0  0  0
   16.5385   10.3954   10.7946 C   0  0  0  0  0  0  0  0  0  0  0  0
   17.7320   11.1372   10.6247 N   0  0  0  0  0  0  0  0  0  0  0  0
   18.1542   12.2297   11.3514 C   0  0  0  0  0  0  0  0  0  0  0  0
   17.4092   13.0371   11.8997 O   0  0  0  0  0  0  0  0  0  0  0  0
   19.6244   12.3738   11.5175 C   0  0  2  0  0  0  0  0  0  0  0  0
   20.5876   13.0374   10.5935 C   0  0  0  0  0  0  0  0  0  0  0  0
   20.3943   11.6197   10.5656 O   0  0  0  0  0  0  0  0  0  0  0  0
   16.1592    9.5597    9.7382 C   0  0  0  0  0  0  0  0  0  0  0  0
   15.1996    8.5677    9.8988 C   0  0  0  0  0  0  0  0  0  0  0  0
   14.6917    8.3103   11.1594 C   0  0  0  0  0  0  0  0  0  0  0  0
   13.6273    6.4956   11.3469 I   0  0  0  0  0  0  0  0  0  0  0  0
   14.9895    9.2010   12.2020 C   0  0  0  0  0  0  0  0  0  0  0  0
   14.3715    9.0150   13.8017 Cl  0  0  0  0  0  0  0  0  0  0  0  0
  1  2  1  0
  2  3  2  0
  3  4  1  0
  4  5  1  0
  5  6  2  0
  7  5  1  6
  7  8  1  0
  8  9  1  0
  3 10  1  0
 10 11  2  0
 11 12  1  0
 12 13  1  0
 12 14  2  0
 14 15  1  0
 14  2  1  0
  9  7  1  0
M  END
>  <HIPPO ID>  (204) 
111463

>  <alias>  (204) 
None

>  <ref_mols>  (204) 
c0692a,c1116a

>  <submitter_email>  (204) 
None

>  <ref_pdb>  (204) 
c0270a

>  <inchikey>  (204) 
DJWCDCZOHPOQHO-LURJTMIESA-N

>  <generation_date>  (204) 
None

>  <original ID>  (204) 
DJWCDCZOHPOQHO-LURJTMIESA-N

>  <tags>  (204) 
[]

>  <exports>  (204) 
nan

>  <method>  (204) 
None

>  <submitter_name>  (204) 
None

>  <original SMILES>  (204) 
Nc1c(NC(=O)[C@@H]2CO2)ccc(I)c1Cl

>  <ref_url>  (204) 
None

$$$$
DJWCDCZOHPOQHO-ZCFIWIBFSA-N
     RDKit          3D

 15 16  0  0  0  0  0  0  0  0999 V2000
   16.2618   10.8700   13.1733 N   0  0  0  0  0  0  0  0  0  0  0  0
   15.8410   10.1438   12.0323 C   0  0  0  0  0  0  0  0  0  0  0  0
   16.4830   10.2588   10.7932 C   0  0  0  0  0  0  0  0  0  0  0  0
   17.6560   11.0045   10.5546 N   0  0  0  0  0  0  0  0  0  0  0  0
   18.2160   12.0376   11.2730 C   0  0  0  0  0  0  0  0  0  0  0  0
   17.6628   12.7053   12.1386 O   0  0  0  0  0  0  0  0  0  0  0  0
   19.5736   12.4336   10.8127 C   0  0  1  0  0  0  0  0  0  0  0  0
   20.8962   11.9728   11.3648 C   0  0  0  0  0  0  0  0  0  0  0  0
   20.3122   11.3411   10.2311 O   0  0  0  0  0  0  0  0  0  0  0  0
   16.0324    9.4822    9.7160 C   0  0  0  0  0  0  0  0  0  0  0  0
   15.0714    8.4937    9.8811 C   0  0  0  0  0  0  0  0  0  0  0  0
   14.6133    8.1988   11.1524 C   0  0  0  0  0  0  0  0  0  0  0  0
   13.5223    6.4006   11.3281 I   0  0  0  0  0  0  0  0  0  0  0  0
   14.9636    9.0492   12.2122 C   0  0  0  0  0  0  0  0  0  0  0  0
   14.3633    8.8408   13.8166 Cl  0  0  0  0  0  0  0  0  0  0  0  0
  1  2  1  0
  2  3  2  0
  3  4  1  0
  4  5  1  0
  5  6  2  0
  7  5  1  1
  7  8  1  0
  8  9  1  0
  3 10  1  0
 10 11  2  0
 11 12  1  0
 12 13  1  0
 12 14  2  0
 14 15  1  0
 14  2  1  0
  9  7  1  0
M  END
>  <HIPPO ID>  (205) 
111464

>  <alias>  (205) 
None

>  <ref_mols>  (205) 
c0692a,c1116a

>  <submitter_email>  (205) 
None

>  <ref_pdb>  (205) 
c0270a

>  <inchikey>  (205) 
DJWCDCZOHPOQHO-ZCFIWIBFSA-N

>  <generation_date>  (205) 
None

>  <original ID>  (205) 
DJWCDCZOHPOQHO-ZCFIWIBFSA-N

>  <tags>  (205) 
[]

>  <exports>  (205) 
nan

>  <method>  (205) 
None

>  <submitter_name>  (205) 
None

>  <original SMILES>  (205) 
Nc1c(NC(=O)[C@H]2CO2)ccc(I)c1Cl

>  <ref_url>  (205) 
None

$$$$
SZRHJBXSALDGBI-SECBINFHSA-N
     RDKit          3D

 15 16  0  0  0  0  0  0  0  0999 V2000
   13.2740    9.3773    9.1376 C   0  0  0  0  0  0  0  0  0  0  0  0
   14.4663    9.9190    9.8825 C   0  0  0  0  0  0  0  0  0  0  0  0
   15.6185    9.2898    9.4804 C   0  0  0  0  0  0  0  0  0  0  0  0
   16.8174    9.7781    9.9166 C   0  0  0  0  0  0  0  0  0  0  0  0
   16.9485   10.7169   10.9110 C   0  0  0  0  0  0  0  0  0  0  0  0
   18.2524   11.2042   11.0620 N   0  0  0  0  0  0  0  0  0  0  0  0
   18.6189   12.4423   11.5163 C   0  0  0  0  0  0  0  0  0  0  0  0
   17.9353   13.2230   12.1642 O   0  0  0  0  0  0  0  0  0  0  0  0
   19.9825   12.8365   11.0749 C   0  0  1  0  0  0  0  0  0  0  0  0
   21.2591   12.2946   11.6571 C   0  0  0  0  0  0  0  0  0  0  0  0
   20.7173   11.7556   10.4536 O   0  0  0  0  0  0  0  0  0  0  0  0
   15.8138   11.1990   11.5223 C   0  0  0  0  0  0  0  0  0  0  0  0
   15.8770   11.7781   12.8070 N   0  0  0  0  0  0  0  0  0  0  0  0
   14.5784   10.9245   10.8922 C   0  0  0  0  0  0  0  0  0  0  0  0
   13.5591   11.9885   11.1847 C   0  0  0  0  0  0  0  0  0  0  0  0
  1  2  1  0
  2  3  2  0
  3  4  1  0
  4  5  2  0
  5  6  1  0
  6  7  1  0
  7  8  2  0
  9  7  1  1
  9 10  1  0
 10 11  1  0
  5 12  1  0
 12 13  1  0
 12 14  2  0
 14 15  1  0
 14  2  1  0
 11  9  1  0
M  END
>  <HIPPO ID>  (206) 
111475

>  <alias>  (206) 
None

>  <ref_mols>  (206) 
c0692a,c1116a

>  <submitter_email>  (206) 
None

>  <ref_pdb>  (206) 
c0270a

>  <inchikey>  (206) 
SZRHJBXSALDGBI-SECBINFHSA-N

>  <generation_date>  (206) 
None

>  <original ID>  (206) 
SZRHJBXSALDGBI-SECBINFHSA-N

>  <tags>  (206) 
[]

>  <exports>  (206) 
nan

>  <method>  (206) 
None

>  <submitter_name>  (206) 
None

>  <original SMILES>  (206) 
Cc1ccc(NC(=O)[C@H]2CO2)c(N)c1C

>  <ref_url>  (206) 
None

$$$$
LGPDLZXKZPNLFM-VIFPVBQESA-N
     RDKit          3D

 15 16  0  0  0  0  0  0  0  0999 V2000
   14.2433    9.4090   14.0699 C   0  0  0  0  0  0  0  0  0  0  0  0
   14.8744    9.4091   12.7180 C   0  0  0  0  0  0  0  0  0  0  0  0
   14.5963    8.3542   11.8422 C   0  0  0  0  0  0  0  0  0  0  0  0
   15.0527    8.4048   10.5458 C   0  0  0  0  0  0  0  0  0  0  0  0
   15.8924    9.4428   10.1522 C   0  0  0  0  0  0  0  0  0  0  0  0
   16.4218    9.3599    8.8754 N   0  0  0  0  0  0  0  0  0  0  0  0
   16.3553   10.3974   11.0858 C   0  0  0  0  0  0  0  0  0  0  0  0
   17.5484   11.0943   10.7360 N   0  0  0  0  0  0  0  0  0  0  0  0
   18.0745   12.2394   11.2940 C   0  0  0  0  0  0  0  0  0  0  0  0
   17.4258   13.1895   11.7123 O   0  0  0  0  0  0  0  0  0  0  0  0
   19.5507   12.2766   11.4591 C   0  0  2  0  0  0  0  0  0  0  0  0
   20.5528   12.9081   10.5563 C   0  0  0  0  0  0  0  0  0  0  0  0
   20.2796   11.5025   10.4995 O   0  0  0  0  0  0  0  0  0  0  0  0
   15.7482   10.4534   12.3508 C   0  0  0  0  0  0  0  0  0  0  0  0
   16.0140   11.5418   13.3468 C   0  0  0  0  0  0  0  0  0  0  0  0
  1  2  1  0
  2  3  2  0
  3  4  1  0
  4  5  2  0
  5  6  1  0
  5  7  1  0
  7  8  1  0
  8  9  1  0
  9 10  2  0
 11  9  1  6
 11 12  1  0
 12 13  1  0
  7 14  2  0
 14 15  1  0
 14  2  1  0
 13 11  1  0
M  END
>  <HIPPO ID>  (207) 
111476

>  <alias>  (207) 
None

>  <ref_mols>  (207) 
c0692a,c1116a

>  <submitter_email>  (207) 
None

>  <ref_pdb>  (207) 
c0270a

>  <inchikey>  (207) 
LGPDLZXKZPNLFM-VIFPVBQESA-N

>  <generation_date>  (207) 
None

>  <original ID>  (207) 
LGPDLZXKZPNLFM-VIFPVBQESA-N

>  <tags>  (207) 
[]

>  <exports>  (207) 
nan

>  <method>  (207) 
None

>  <submitter_name>  (207) 
None

>  <original SMILES>  (207) 
Cc1ccc(N)c(NC(=O)[C@@H]2CO2)c1C

>  <ref_url>  (207) 
None

$$$$
FNFCZSIVCRCIDW-VIFPVBQESA-N
     RDKit          3D

 15 16  0  0  0  0  0  0  0  0999 V2000
   14.8598    9.8609    8.5817 C   0  0  0  0  0  0  0  0  0  0  0  0
   16.1521    9.3093    8.9612 N   0  0  0  0  0  0  0  0  0  0  0  0
   16.1294    9.2598   10.3719 C   0  0  0  0  0  0  0  0  0  0  0  0
   15.2773    8.2980   10.9404 C   0  0  0  0  0  0  0  0  0  0  0  0
   14.8029    8.4855   12.2203 C   0  0  0  0  0  0  0  0  0  0  0  0
   15.1308    9.6661   12.8726 C   0  0  0  0  0  0  0  0  0  0  0  0
   14.3567   10.1254   14.4974 Br  0  0  0  0  0  0  0  0  0  0  0  0
   16.0386   10.5775   12.3576 C   0  0  0  0  0  0  0  0  0  0  0  0
   16.6099   10.3460   11.1246 C   0  0  0  0  0  0  0  0  0  0  0  0
   17.7231   11.0959   10.6791 N   0  0  0  0  0  0  0  0  0  0  0  0
   18.2140   12.2130   11.3342 C   0  0  0  0  0  0  0  0  0  0  0  0
   17.5207   13.0587   11.8885 O   0  0  0  0  0  0  0  0  0  0  0  0
   19.6914   12.3057   11.4600 C   0  0  2  0  0  0  0  0  0  0  0  0
   20.6404   12.9835   10.5350 C   0  0  0  0  0  0  0  0  0  0  0  0
   20.4136   11.5694   10.4646 O   0  0  0  0  0  0  0  0  0  0  0  0
  1  2  1  0
  2  3  1  0
  3  4  2  0
  4  5  1  0
  5  6  2  0
  6  7  1  0
  6  8  1  0
  8  9  2  0
  9 10  1  0
 10 11  1  0
 11 12  2  0
 13 11  1  6
 13 14  1  0
 14 15  1  0
  9  3  1  0
 15 13  1  0
M  END
>  <HIPPO ID>  (208) 
111489

>  <alias>  (208) 
None

>  <ref_mols>  (208) 
c0692a,c1116a

>  <submitter_email>  (208) 
None

>  <ref_pdb>  (208) 
c0270a

>  <inchikey>  (208) 
FNFCZSIVCRCIDW-VIFPVBQESA-N

>  <generation_date>  (208) 
None

>  <original ID>  (208) 
FNFCZSIVCRCIDW-VIFPVBQESA-N

>  <tags>  (208) 
[]

>  <exports>  (208) 
nan

>  <method>  (208) 
None

>  <submitter_name>  (208) 
None

>  <original SMILES>  (208) 
CNc1ccc(Br)cc1NC(=O)[C@@H]1CO1

>  <ref_url>  (208) 
None

$$$$
FNFCZSIVCRCIDW-SECBINFHSA-N
     RDKit          3D

 15 16  0  0  0  0  0  0  0  0999 V2000
   14.8043    9.8470    8.5769 C   0  0  0  0  0  0  0  0  0  0  0  0
   16.0761    9.2474    8.9447 N   0  0  0  0  0  0  0  0  0  0  0  0
   16.0503    9.1640   10.3531 C   0  0  0  0  0  0  0  0  0  0  0  0
   15.1872    8.2030   10.9027 C   0  0  0  0  0  0  0  0  0  0  0  0
   14.7398    8.3557   12.1978 C   0  0  0  0  0  0  0  0  0  0  0  0
   15.1024    9.5063   12.8851 C   0  0  0  0  0  0  0  0  0  0  0  0
   14.3385    9.9435   14.5233 Br  0  0  0  0  0  0  0  0  0  0  0  0
   16.0234   10.4130   12.3866 C   0  0  0  0  0  0  0  0  0  0  0  0
   16.5647   10.2131   11.1358 C   0  0  0  0  0  0  0  0  0  0  0  0
   17.6530   10.9690   10.6596 N   0  0  0  0  0  0  0  0  0  0  0  0
   18.2650   12.0228   11.3098 C   0  0  0  0  0  0  0  0  0  0  0  0
   17.7918   12.6876   12.2220 O   0  0  0  0  0  0  0  0  0  0  0  0
   19.6003   12.3848   10.7740 C   0  0  1  0  0  0  0  0  0  0  0  0
   20.9300   11.9296   11.3159 C   0  0  0  0  0  0  0  0  0  0  0  0
   20.3129   11.2649   10.2176 O   0  0  0  0  0  0  0  0  0  0  0  0
  1  2  1  0
  2  3  1  0
  3  4  2  0
  4  5  1  0
  5  6  2  0
  6  7  1  0
  6  8  1  0
  8  9  2  0
  9 10  1  0
 10 11  1  0
 11 12  2  0
 13 11  1  1
 13 14  1  0
 14 15  1  0
  9  3  1  0
 15 13  1  0
M  END
>  <HIPPO ID>  (209) 
111490

>  <alias>  (209) 
None

>  <ref_mols>  (209) 
c0692a,c1116a

>  <submitter_email>  (209) 
None

>  <ref_pdb>  (209) 
c0270a

>  <inchikey>  (209) 
FNFCZSIVCRCIDW-SECBINFHSA-N

>  <generation_date>  (209) 
None

>  <original ID>  (209) 
FNFCZSIVCRCIDW-SECBINFHSA-N

>  <tags>  (209) 
[]

>  <exports>  (209) 
nan

>  <method>  (209) 
None

>  <submitter_name>  (209) 
None

>  <original SMILES>  (209) 
CNc1ccc(Br)cc1NC(=O)[C@H]1CO1

>  <ref_url>  (209) 
None

$$$$
KBMNANVENCOBKO-QMMMGPOBSA-N
     RDKit          3D

 15 16  0  0  0  0  0  0  0  0999 V2000
   16.3468    9.4567    8.5702 N   0  0  0  0  0  0  0  0  0  0  0  0
   15.8930    9.4409    9.8804 C   0  0  0  0  0  0  0  0  0  0  0  0
   15.0607    8.3795   10.2270 C   0  0  0  0  0  0  0  0  0  0  0  0
   14.6250    8.2332   11.5313 C   0  0  0  0  0  0  0  0  0  0  0  0
   13.5700    6.4563   11.9320 I   0  0  0  0  0  0  0  0  0  0  0  0
   14.9322    9.2416   12.4517 C   0  0  0  0  0  0  0  0  0  0  0  0
   14.3303    9.3287   14.0500 Cl  0  0  0  0  0  0  0  0  0  0  0  0
   15.7941   10.2852   12.1135 C   0  0  0  0  0  0  0  0  0  0  0  0
   16.3732   10.3241   10.8580 C   0  0  0  0  0  0  0  0  0  0  0  0
   17.5283   11.1076   10.6124 N   0  0  0  0  0  0  0  0  0  0  0  0
   17.9830   12.1435   11.4119 C   0  0  0  0  0  0  0  0  0  0  0  0
   17.2596   12.8632   12.0908 O   0  0  0  0  0  0  0  0  0  0  0  0
   19.4575   12.3170   11.5253 C   0  0  2  0  0  0  0  0  0  0  0  0
   20.4166   12.9714   10.5954 C   0  0  0  0  0  0  0  0  0  0  0  0
   20.2063   11.5580   10.5606 O   0  0  0  0  0  0  0  0  0  0  0  0
  1  2  1  0
  2  3  2  0
  3  4  1  0
  4  5  1  0
  4  6  2  0
  6  7  1  0
  6  8  1  0
  8  9  2  0
  9 10  1  0
 10 11  1  0
 11 12  2  0
 13 11  1  6
 13 14  1  0
 14 15  1  0
  9  2  1  0
 15 13  1  0
M  END
>  <HIPPO ID>  (210) 
111608

>  <alias>  (210) 
None

>  <ref_mols>  (210) 
c0692a,c1116a

>  <submitter_email>  (210) 
None

>  <ref_pdb>  (210) 
c0270a

>  <inchikey>  (210) 
KBMNANVENCOBKO-QMMMGPOBSA-N

>  <generation_date>  (210) 
None

>  <original ID>  (210) 
KBMNANVENCOBKO-QMMMGPOBSA-N

>  <tags>  (210) 
[]

>  <exports>  (210) 
nan

>  <method>  (210) 
None

>  <submitter_name>  (210) 
None

>  <original SMILES>  (210) 
Nc1cc(I)c(Cl)cc1NC(=O)[C@@H]1CO1

>  <ref_url>  (210) 
None

$$$$
KBMNANVENCOBKO-MRVPVSSYSA-N
     RDKit          3D

 15 16  0  0  0  0  0  0  0  0999 V2000
   16.2268    9.4711    8.5520 N   0  0  0  0  0  0  0  0  0  0  0  0
   15.7892    9.3903    9.8662 C   0  0  0  0  0  0  0  0  0  0  0  0
   14.9597    8.3200   10.1864 C   0  0  0  0  0  0  0  0  0  0  0  0
   14.5593    8.1176   11.4964 C   0  0  0  0  0  0  0  0  0  0  0  0
   13.4627    6.3576   11.8473 I   0  0  0  0  0  0  0  0  0  0  0  0
   14.9131    9.0715   12.4578 C   0  0  0  0  0  0  0  0  0  0  0  0
   14.3305    9.1106   14.0651 Cl  0  0  0  0  0  0  0  0  0  0  0  0
   15.7904   10.1085   12.1497 C   0  0  0  0  0  0  0  0  0  0  0  0
   16.3187   10.2036   10.8783 C   0  0  0  0  0  0  0  0  0  0  0  0
   17.4402   11.0027   10.5865 N   0  0  0  0  0  0  0  0  0  0  0  0
   18.0687   11.9147   11.4100 C   0  0  0  0  0  0  0  0  0  0  0  0
   17.6236   12.3793   12.4506 O   0  0  0  0  0  0  0  0  0  0  0  0
   19.3727   12.4025   10.8907 C   0  0  1  0  0  0  0  0  0  0  0  0
   20.7517   11.9594   11.3143 C   0  0  0  0  0  0  0  0  0  0  0  0
   20.1048   11.3809   10.1880 O   0  0  0  0  0  0  0  0  0  0  0  0
  1  2  1  0
  2  3  2  0
  3  4  1  0
  4  5  1  0
  4  6  2  0
  6  7  1  0
  6  8  1  0
  8  9  2  0
  9 10  1  0
 10 11  1  0
 11 12  2  0
 13 11  1  1
 13 14  1  0
 14 15  1  0
  9  2  1  0
 15 13  1  0
M  END
>  <HIPPO ID>  (211) 
111609

>  <alias>  (211) 
None

>  <ref_mols>  (211) 
c0692a,c1116a

>  <submitter_email>  (211) 
None

>  <ref_pdb>  (211) 
c0270a

>  <inchikey>  (211) 
KBMNANVENCOBKO-MRVPVSSYSA-N

>  <generation_date>  (211) 
None

>  <original ID>  (211) 
KBMNANVENCOBKO-MRVPVSSYSA-N

>  <tags>  (211) 
[]

>  <exports>  (211) 
nan

>  <method>  (211) 
None

>  <submitter_name>  (211) 
None

>  <original SMILES>  (211) 
Nc1cc(I)c(Cl)cc1NC(=O)[C@H]1CO1

>  <ref_url>  (211) 
None

$$$$
HBQBWIYUUFLBEN-QMMMGPOBSA-N
     RDKit          3D

 15 16  0  0  0  0  0  0  0  0999 V2000
   15.8887   11.4024   13.3387 C   0  0  0  0  0  0  0  0  0  0  0  0
   15.7043   10.3872   12.2581 C   0  0  0  0  0  0  0  0  0  0  0  0
   14.7972    9.3664   12.5339 C   0  0  0  0  0  0  0  0  0  0  0  0
   14.0866    9.4606   13.6593 F   0  0  0  0  0  0  0  0  0  0  0  0
   14.5485    8.2995   11.6801 C   0  0  0  0  0  0  0  0  0  0  0  0
   15.0774    8.3415   10.4146 C   0  0  0  0  0  0  0  0  0  0  0  0
   15.9645    9.3648   10.0809 C   0  0  0  0  0  0  0  0  0  0  0  0
   16.2869    9.4738    8.7408 N   0  0  0  0  0  0  0  0  0  0  0  0
   16.3590   10.3496   11.0256 C   0  0  0  0  0  0  0  0  0  0  0  0
   17.5368   11.0909   10.7237 N   0  0  0  0  0  0  0  0  0  0  0  0
   18.0100   12.2353   11.3307 C   0  0  0  0  0  0  0  0  0  0  0  0
   17.3206   13.1393   11.7827 O   0  0  0  0  0  0  0  0  0  0  0  0
   19.4842   12.3219   11.5062 C   0  0  2  0  0  0  0  0  0  0  0  0
   20.4920   12.9294   10.5935 C   0  0  0  0  0  0  0  0  0  0  0  0
   20.2348   11.5216   10.5800 O   0  0  0  0  0  0  0  0  0  0  0  0
  1  2  1  0
  2  3  2  0
  3  4  1  0
  3  5  1  0
  5  6  2  0
  6  7  1  0
  7  8  1  0
  7  9  2  0
  9 10  1  0
 10 11  1  0
 11 12  2  0
 13 11  1  6
 13 14  1  0
 14 15  1  0
  9  2  1  0
 15 13  1  0
M  END
>  <HIPPO ID>  (212) 
111682

>  <alias>  (212) 
None

>  <ref_mols>  (212) 
c0692a,c1116a

>  <submitter_email>  (212) 
None

>  <ref_pdb>  (212) 
c0270a

>  <inchikey>  (212) 
HBQBWIYUUFLBEN-QMMMGPOBSA-N

>  <generation_date>  (212) 
None

>  <original ID>  (212) 
HBQBWIYUUFLBEN-QMMMGPOBSA-N

>  <tags>  (212) 
[]

>  <exports>  (212) 
nan

>  <method>  (212) 
None

>  <submitter_name>  (212) 
None

>  <original SMILES>  (212) 
Cc1c(F)ccc(N)c1NC(=O)[C@@H]1CO1

>  <ref_url>  (212) 
None

$$$$
HBQBWIYUUFLBEN-MRVPVSSYSA-N
     RDKit          3D

 15 16  0  0  0  0  0  0  0  0999 V2000
   15.7356   11.3561   13.2697 C   0  0  0  0  0  0  0  0  0  0  0  0
   15.6333   10.3271   12.1925 C   0  0  0  0  0  0  0  0  0  0  0  0
   14.7906    9.2512   12.4646 C   0  0  0  0  0  0  0  0  0  0  0  0
   14.1349    9.2617   13.6259 F   0  0  0  0  0  0  0  0  0  0  0  0
   14.5374    8.2198   11.5702 C   0  0  0  0  0  0  0  0  0  0  0  0
   15.0063    8.3478   10.2858 C   0  0  0  0  0  0  0  0  0  0  0  0
   15.8196    9.4321    9.9632 C   0  0  0  0  0  0  0  0  0  0  0  0
   16.2765    9.4814    8.6482 N   0  0  0  0  0  0  0  0  0  0  0  0
   16.2887   10.3243   10.9651 C   0  0  0  0  0  0  0  0  0  0  0  0
   17.4558   11.0570   10.6343 N   0  0  0  0  0  0  0  0  0  0  0  0
   18.1840   11.9847   11.3471 C   0  0  0  0  0  0  0  0  0  0  0  0
   17.8444   12.6087   12.3376 O   0  0  0  0  0  0  0  0  0  0  0  0
   19.5106   12.3023   10.7571 C   0  0  1  0  0  0  0  0  0  0  0  0
   20.8511   11.7960   11.2227 C   0  0  0  0  0  0  0  0  0  0  0  0
   20.1509   11.1652   10.1547 O   0  0  0  0  0  0  0  0  0  0  0  0
  1  2  1  0
  2  3  2  0
  3  4  1  0
  3  5  1  0
  5  6  2  0
  6  7  1  0
  7  8  1  0
  7  9  2  0
  9 10  1  0
 10 11  1  0
 11 12  2  0
 13 11  1  1
 13 14  1  0
 14 15  1  0
  9  2  1  0
 15 13  1  0
M  END
>  <HIPPO ID>  (213) 
111683

>  <alias>  (213) 
None

>  <ref_mols>  (213) 
c0692a,c1116a

>  <submitter_email>  (213) 
None

>  <ref_pdb>  (213) 
c0270a

>  <inchikey>  (213) 
HBQBWIYUUFLBEN-MRVPVSSYSA-N

>  <generation_date>  (213) 
None

>  <original ID>  (213) 
HBQBWIYUUFLBEN-MRVPVSSYSA-N

>  <tags>  (213) 
[]

>  <exports>  (213) 
nan

>  <method>  (213) 
None

>  <submitter_name>  (213) 
None

>  <original SMILES>  (213) 
Cc1c(F)ccc(N)c1NC(=O)[C@H]1CO1

>  <ref_url>  (213) 
None

$$$$
IHIIZROAFXYPIZ-LURJTMIESA-N
     RDKit          3D

 15 16  0  0  0  0  0  0  0  0999 V2000
   16.4905    9.3619    8.8796 N   0  0  0  0  0  0  0  0  0  0  0  0
   15.9244    9.4418   10.1354 C   0  0  0  0  0  0  0  0  0  0  0  0
   15.0492    8.4110   10.4803 C   0  0  0  0  0  0  0  0  0  0  0  0
   14.5162    8.3776   11.7426 C   0  0  0  0  0  0  0  0  0  0  0  0
   14.7745    9.4406   12.5970 C   0  0  0  0  0  0  0  0  0  0  0  0
   14.0644    9.5336   13.7230 F   0  0  0  0  0  0  0  0  0  0  0  0
   15.7163   10.4250   12.3215 C   0  0  0  0  0  0  0  0  0  0  0  0
   16.0945   11.5461   13.8004 Br  0  0  0  0  0  0  0  0  0  0  0  0
   16.3764   10.3827   11.0949 C   0  0  0  0  0  0  0  0  0  0  0  0
   17.5827   11.0698   10.7882 N   0  0  0  0  0  0  0  0  0  0  0  0
   18.0472   12.2469   11.3316 C   0  0  0  0  0  0  0  0  0  0  0  0
   17.3443   13.1785   11.6990 O   0  0  0  0  0  0  0  0  0  0  0  0
   19.5172   12.3407   11.5226 C   0  0  2  0  0  0  0  0  0  0  0  0
   20.5248   12.9457   10.6067 C   0  0  0  0  0  0  0  0  0  0  0  0
   20.2795   11.5359   10.6091 O   0  0  0  0  0  0  0  0  0  0  0  0
  1  2  1  0
  2  3  2  0
  3  4  1  0
  4  5  2  0
  5  6  1  0
  5  7  1  0
  7  8  1  0
  7  9  2  0
  9 10  1  0
 10 11  1  0
 11 12  2  0
 13 11  1  6
 13 14  1  0
 14 15  1  0
  9  2  1  0
 15 13  1  0
M  END
>  <HIPPO ID>  (214) 
111689

>  <alias>  (214) 
None

>  <ref_mols>  (214) 
c0692a,c1116a

>  <submitter_email>  (214) 
None

>  <ref_pdb>  (214) 
c0270a

>  <inchikey>  (214) 
IHIIZROAFXYPIZ-LURJTMIESA-N

>  <generation_date>  (214) 
None

>  <original ID>  (214) 
IHIIZROAFXYPIZ-LURJTMIESA-N

>  <tags>  (214) 
[]

>  <exports>  (214) 
nan

>  <method>  (214) 
None

>  <submitter_name>  (214) 
None

>  <original SMILES>  (214) 
Nc1ccc(F)c(Br)c1NC(=O)[C@@H]1CO1

>  <ref_url>  (214) 
None

$$$$
XAKYJKULTUNFAP-ZCFIWIBFSA-N
     RDKit          3D

 15 16  0  0  0  0  0  0  0  0999 V2000
   16.4024   11.0621   13.1435 N   0  0  0  0  0  0  0  0  0  0  0  0
   15.9417   10.3109   12.0361 C   0  0  0  0  0  0  0  0  0  0  0  0
   16.5924   10.3099   10.7940 C   0  0  0  0  0  0  0  0  0  0  0  0
   17.7988   10.9895   10.5316 N   0  0  0  0  0  0  0  0  0  0  0  0
   18.3565   12.0674   11.1831 C   0  0  0  0  0  0  0  0  0  0  0  0
   17.7886   12.8108   11.9754 O   0  0  0  0  0  0  0  0  0  0  0  0
   19.7351   12.4030   10.7443 C   0  0  1  0  0  0  0  0  0  0  0  0
   21.0184   11.9328   11.3712 C   0  0  0  0  0  0  0  0  0  0  0  0
   20.4645   11.2671   10.2403 O   0  0  0  0  0  0  0  0  0  0  0  0
   16.1159    9.4847    9.7575 C   0  0  0  0  0  0  0  0  0  0  0  0
   15.0810    8.5834    9.9637 C   0  0  0  0  0  0  0  0  0  0  0  0
   14.5705    8.4495   11.2356 C   0  0  0  0  0  0  0  0  0  0  0  0
   13.6421    7.5025   11.4417 F   0  0  0  0  0  0  0  0  0  0  0  0
   14.9901    9.3051   12.2587 C   0  0  0  0  0  0  0  0  0  0  0  0
   14.3171    9.1474   14.0195 Br  0  0  0  0  0  0  0  0  0  0  0  0
  1  2  1  0
  2  3  2  0
  3  4  1  0
  4  5  1  0
  5  6  2  0
  7  5  1  1
  7  8  1  0
  8  9  1  0
  3 10  1  0
 10 11  2  0
 11 12  1  0
 12 13  1  0
 12 14  2  0
 14 15  1  0
 14  2  1  0
  9  7  1  0
M  END
>  <HIPPO ID>  (215) 
111690

>  <alias>  (215) 
None

>  <ref_mols>  (215) 
c0692a,c1116a

>  <submitter_email>  (215) 
None

>  <ref_pdb>  (215) 
c0270a

>  <inchikey>  (215) 
XAKYJKULTUNFAP-ZCFIWIBFSA-N

>  <generation_date>  (215) 
None

>  <original ID>  (215) 
XAKYJKULTUNFAP-ZCFIWIBFSA-N

>  <tags>  (215) 
[]

>  <exports>  (215) 
nan

>  <method>  (215) 
None

>  <submitter_name>  (215) 
None

>  <original SMILES>  (215) 
Nc1c(NC(=O)[C@H]2CO2)ccc(F)c1Br

>  <ref_url>  (215) 
None

$$$$
DEXMTAAYNXSQJX-QMMMGPOBSA-N
     RDKit          3D

 15 16  0  0  0  0  0  0  0  0999 V2000
   16.3554    9.4568    8.5661 N   0  0  0  0  0  0  0  0  0  0  0  0
   15.9313    9.4868    9.8853 C   0  0  0  0  0  0  0  0  0  0  0  0
   15.0246    8.5011   10.2593 C   0  0  0  0  0  0  0  0  0  0  0  0
   14.5738    8.4628   11.5572 C   0  0  0  0  0  0  0  0  0  0  0  0
   13.6896    7.5081   11.8824 F   0  0  0  0  0  0  0  0  0  0  0  0
   14.9735    9.4475   12.4579 C   0  0  0  0  0  0  0  0  0  0  0  0
   14.3235    9.5878   14.2056 Br  0  0  0  0  0  0  0  0  0  0  0  0
   15.9119   10.4027   12.1021 C   0  0  0  0  0  0  0  0  0  0  0  0
   16.4709   10.3707   10.8379 C   0  0  0  0  0  0  0  0  0  0  0  0
   17.6550   11.0981   10.5738 N   0  0  0  0  0  0  0  0  0  0  0  0
   18.1283   12.1512   11.3416 C   0  0  0  0  0  0  0  0  0  0  0  0
   17.4165   12.9164   11.9833 O   0  0  0  0  0  0  0  0  0  0  0  0
   19.6042   12.2858   11.4640 C   0  0  2  0  0  0  0  0  0  0  0  0
   20.5527   12.9729   10.5462 C   0  0  0  0  0  0  0  0  0  0  0  0
   20.3424   11.5578   10.4729 O   0  0  0  0  0  0  0  0  0  0  0  0
  1  2  1  0
  2  3  2  0
  3  4  1  0
  4  5  1  0
  4  6  2  0
  6  7  1  0
  6  8  1  0
  8  9  2  0
  9 10  1  0
 10 11  1  0
 11 12  2  0
 13 11  1  6
 13 14  1  0
 14 15  1  0
  9  2  1  0
 15 13  1  0
M  END
>  <HIPPO ID>  (216) 
111710

>  <alias>  (216) 
None

>  <ref_mols>  (216) 
c0692a,c1116a

>  <submitter_email>  (216) 
None

>  <ref_pdb>  (216) 
c0270a

>  <inchikey>  (216) 
DEXMTAAYNXSQJX-QMMMGPOBSA-N

>  <generation_date>  (216) 
None

>  <original ID>  (216) 
DEXMTAAYNXSQJX-QMMMGPOBSA-N

>  <tags>  (216) 
[]

>  <exports>  (216) 
nan

>  <method>  (216) 
None

>  <submitter_name>  (216) 
None

>  <original SMILES>  (216) 
Nc1cc(F)c(Br)cc1NC(=O)[C@@H]1CO1

>  <ref_url>  (216) 
None

$$$$
DEXMTAAYNXSQJX-MRVPVSSYSA-N
     RDKit          3D

 15 16  0  0  0  0  0  0  0  0999 V2000
   16.2522    9.4570    8.5531 N   0  0  0  0  0  0  0  0  0  0  0  0
   15.8374    9.4308    9.8762 C   0  0  0  0  0  0  0  0  0  0  0  0
   14.9393    8.4337   10.2343 C   0  0  0  0  0  0  0  0  0  0  0  0
   14.5201    8.3492   11.5427 C   0  0  0  0  0  0  0  0  0  0  0  0
   13.6182    7.4050   11.8495 F   0  0  0  0  0  0  0  0  0  0  0  0
   14.9558    9.2900   12.4745 C   0  0  0  0  0  0  0  0  0  0  0  0
   14.3179    9.3950   14.2305 Br  0  0  0  0  0  0  0  0  0  0  0  0
   15.9049   10.2392   12.1380 C   0  0  0  0  0  0  0  0  0  0  0  0
   16.4187   10.2545   10.8576 C   0  0  0  0  0  0  0  0  0  0  0  0
   17.5718   10.9936   10.5406 N   0  0  0  0  0  0  0  0  0  0  0  0
   18.2003   11.9434   11.3219 C   0  0  0  0  0  0  0  0  0  0  0  0
   17.7367   12.4860   12.3163 O   0  0  0  0  0  0  0  0  0  0  0  0
   19.5283   12.3694   10.8143 C   0  0  1  0  0  0  0  0  0  0  0  0
   20.8758   11.9163   11.3148 C   0  0  0  0  0  0  0  0  0  0  0  0
   20.2588   11.2959   10.1924 O   0  0  0  0  0  0  0  0  0  0  0  0
  1  2  1  0
  2  3  2  0
  3  4  1  0
  4  5  1  0
  4  6  2  0
  6  7  1  0
  6  8  1  0
  8  9  2  0
  9 10  1  0
 10 11  1  0
 11 12  2  0
 13 11  1  1
 13 14  1  0
 14 15  1  0
  9  2  1  0
 15 13  1  0
M  END
>  <HIPPO ID>  (217) 
111711

>  <alias>  (217) 
None

>  <ref_mols>  (217) 
c0692a,c1116a

>  <submitter_email>  (217) 
None

>  <ref_pdb>  (217) 
c0270a

>  <inchikey>  (217) 
DEXMTAAYNXSQJX-MRVPVSSYSA-N

>  <generation_date>  (217) 
None

>  <original ID>  (217) 
DEXMTAAYNXSQJX-MRVPVSSYSA-N

>  <tags>  (217) 
[]

>  <exports>  (217) 
nan

>  <method>  (217) 
None

>  <submitter_name>  (217) 
None

>  <original SMILES>  (217) 
Nc1cc(F)c(Br)cc1NC(=O)[C@H]1CO1

>  <ref_url>  (217) 
None

$$$$
CWEQGATWLYUSPU-LURJTMIESA-N
     RDKit          3D

 15 16  0  0  0  0  0  0  0  0999 V2000
   16.2127   11.1742   13.1090 N   0  0  0  0  0  0  0  0  0  0  0  0
   15.8766   10.4489   11.9378 C   0  0  0  0  0  0  0  0  0  0  0  0
   16.6593   10.4203   10.7782 C   0  0  0  0  0  0  0  0  0  0  0  0
   17.8884   11.1021   10.6480 N   0  0  0  0  0  0  0  0  0  0  0  0
   18.3020   12.2142   11.3486 C   0  0  0  0  0  0  0  0  0  0  0  0
   17.5589   13.0296   11.8865 O   0  0  0  0  0  0  0  0  0  0  0  0
   19.7728   12.3610   11.5025 C   0  0  2  0  0  0  0  0  0  0  0  0
   20.7049   13.0556   10.5689 C   0  0  0  0  0  0  0  0  0  0  0  0
   20.5349   11.6340   10.5251 O   0  0  0  0  0  0  0  0  0  0  0  0
   16.2913    9.5622    9.7264 C   0  0  0  0  0  0  0  0  0  0  0  0
   15.2313    8.6715    9.8372 C   0  0  0  0  0  0  0  0  0  0  0  0
   14.5699    8.5889   11.0342 C   0  0  0  0  0  0  0  0  0  0  0  0
   13.6249    7.6497   11.1822 F   0  0  0  0  0  0  0  0  0  0  0  0
   14.8702    9.4914   12.0504 C   0  0  0  0  0  0  0  0  0  0  0  0
   14.1594    9.5185   13.1814 F   0  0  0  0  0  0  0  0  0  0  0  0
  1  2  1  0
  2  3  2  0
  3  4  1  0
  4  5  1  0
  5  6  2  0
  7  5  1  6
  7  8  1  0
  8  9  1  0
  3 10  1  0
 10 11  2  0
 11 12  1  0
 12 13  1  0
 12 14  2  0
 14 15  1  0
 14  2  1  0
  9  7  1  0
M  END
>  <HIPPO ID>  (218) 
111758

>  <alias>  (218) 
None

>  <ref_mols>  (218) 
c0692a,c1116a

>  <submitter_email>  (218) 
None

>  <ref_pdb>  (218) 
c0270a

>  <inchikey>  (218) 
CWEQGATWLYUSPU-LURJTMIESA-N

>  <generation_date>  (218) 
None

>  <original ID>  (218) 
CWEQGATWLYUSPU-LURJTMIESA-N

>  <tags>  (218) 
[]

>  <exports>  (218) 
nan

>  <method>  (218) 
None

>  <submitter_name>  (218) 
None

>  <original SMILES>  (218) 
Nc1c(NC(=O)[C@@H]2CO2)ccc(F)c1F

>  <ref_url>  (218) 
None

$$$$
CWEQGATWLYUSPU-ZCFIWIBFSA-N
     RDKit          3D

 15 16  0  0  0  0  0  0  0  0999 V2000
   16.2764   10.9384   13.1388 N   0  0  0  0  0  0  0  0  0  0  0  0
   15.8773   10.2720   11.9583 C   0  0  0  0  0  0  0  0  0  0  0  0
   16.6005   10.2756   10.7630 C   0  0  0  0  0  0  0  0  0  0  0  0
   17.8106   10.9637   10.5587 N   0  0  0  0  0  0  0  0  0  0  0  0
   18.3312   12.0372   11.2448 C   0  0  0  0  0  0  0  0  0  0  0  0
   17.7485   12.7261   12.0740 O   0  0  0  0  0  0  0  0  0  0  0  0
   19.6941   12.4324   10.8037 C   0  0  1  0  0  0  0  0  0  0  0  0
   20.9989   11.9765   11.3984 C   0  0  0  0  0  0  0  0  0  0  0  0
   20.4503   11.3365   10.2508 O   0  0  0  0  0  0  0  0  0  0  0  0
   16.1662    9.4709    9.6907 C   0  0  0  0  0  0  0  0  0  0  0  0
   15.1073    8.5836    9.8209 C   0  0  0  0  0  0  0  0  0  0  0  0
   14.5064    8.4621   11.0463 C   0  0  0  0  0  0  0  0  0  0  0  0
   13.5533    7.5332   11.2062 F   0  0  0  0  0  0  0  0  0  0  0  0
   14.8613    9.3263   12.0782 C   0  0  0  0  0  0  0  0  0  0  0  0
   14.1887    9.3286   13.2327 F   0  0  0  0  0  0  0  0  0  0  0  0
  1  2  1  0
  2  3  2  0
  3  4  1  0
  4  5  1  0
  5  6  2  0
  7  5  1  1
  7  8  1  0
  8  9  1  0
  3 10  1  0
 10 11  2  0
 11 12  1  0
 12 13  1  0
 12 14  2  0
 14 15  1  0
 14  2  1  0
  9  7  1  0
M  END
>  <HIPPO ID>  (219) 
111759

>  <alias>  (219) 
None

>  <ref_mols>  (219) 
c0692a,c1116a

>  <submitter_email>  (219) 
None

>  <ref_pdb>  (219) 
c0270a

>  <inchikey>  (219) 
CWEQGATWLYUSPU-ZCFIWIBFSA-N

>  <generation_date>  (219) 
None

>  <original ID>  (219) 
CWEQGATWLYUSPU-ZCFIWIBFSA-N

>  <tags>  (219) 
[]

>  <exports>  (219) 
nan

>  <method>  (219) 
None

>  <submitter_name>  (219) 
None

>  <original SMILES>  (219) 
Nc1c(NC(=O)[C@H]2CO2)ccc(F)c1F

>  <ref_url>  (219) 
None

$$$$
DGUKJEUICPIEQN-QMMMGPOBSA-N
     RDKit          3D

 15 16  0  0  0  0  0  0  0  0999 V2000
   16.5187    9.3483    8.7878 N   0  0  0  0  0  0  0  0  0  0  0  0
   15.9519    9.4690   10.0299 C   0  0  0  0  0  0  0  0  0  0  0  0
   15.0622    8.4729   10.4080 C   0  0  0  0  0  0  0  0  0  0  0  0
   14.5195    8.5194   11.6619 C   0  0  0  0  0  0  0  0  0  0  0  0
   13.6562    7.5521   12.0036 F   0  0  0  0  0  0  0  0  0  0  0  0
   14.7814    9.6120   12.4869 C   0  0  0  0  0  0  0  0  0  0  0  0
   14.0931    9.8120   13.6101 F   0  0  0  0  0  0  0  0  0  0  0  0
   15.7227   10.5661   12.1531 C   0  0  0  0  0  0  0  0  0  0  0  0
   16.3947   10.4362   10.9528 C   0  0  0  0  0  0  0  0  0  0  0  0
   17.5947   11.1404   10.6949 N   0  0  0  0  0  0  0  0  0  0  0  0
   18.0713   12.2123   11.4259 C   0  0  0  0  0  0  0  0  0  0  0  0
   17.3666   13.0004   12.0463 O   0  0  0  0  0  0  0  0  0  0  0  0
   19.5496   12.3421   11.5340 C   0  0  2  0  0  0  0  0  0  0  0  0
   20.4975   12.9936   10.5888 C   0  0  0  0  0  0  0  0  0  0  0  0
   20.2761   11.5803   10.5564 O   0  0  0  0  0  0  0  0  0  0  0  0
  1  2  1  0
  2  3  2  0
  3  4  1  0
  4  5  1  0
  4  6  2  0
  6  7  1  0
  6  8  1  0
  8  9  2  0
  9 10  1  0
 10 11  1  0
 11 12  2  0
 13 11  1  6
 13 14  1  0
 14 15  1  0
  9  2  1  0
 15 13  1  0
M  END
>  <HIPPO ID>  (220) 
111762

>  <alias>  (220) 
None

>  <ref_mols>  (220) 
c0692a,c1116a

>  <submitter_email>  (220) 
None

>  <ref_pdb>  (220) 
c0270a

>  <inchikey>  (220) 
DGUKJEUICPIEQN-QMMMGPOBSA-N

>  <generation_date>  (220) 
None

>  <original ID>  (220) 
DGUKJEUICPIEQN-QMMMGPOBSA-N

>  <tags>  (220) 
[]

>  <exports>  (220) 
nan

>  <method>  (220) 
None

>  <submitter_name>  (220) 
None

>  <original SMILES>  (220) 
Nc1cc(F)c(F)cc1NC(=O)[C@@H]1CO1

>  <ref_url>  (220) 
None

$$$$
DGUKJEUICPIEQN-MRVPVSSYSA-N
     RDKit          3D

 15 16  0  0  0  0  0  0  0  0999 V2000
   16.2960    9.4492    8.5499 N   0  0  0  0  0  0  0  0  0  0  0  0
   15.8440    9.4084    9.8586 C   0  0  0  0  0  0  0  0  0  0  0  0
   14.9511    8.3947   10.1773 C   0  0  0  0  0  0  0  0  0  0  0  0
   14.4644    8.3259   11.4576 C   0  0  0  0  0  0  0  0  0  0  0  0
   13.5531    7.3848   11.7425 F   0  0  0  0  0  0  0  0  0  0  0  0
   14.8206    9.3036   12.3850 C   0  0  0  0  0  0  0  0  0  0  0  0
   14.1890    9.4175   13.5527 F   0  0  0  0  0  0  0  0  0  0  0  0
   15.7873   10.2483   12.1108 C   0  0  0  0  0  0  0  0  0  0  0  0
   16.3734   10.2463   10.8618 C   0  0  0  0  0  0  0  0  0  0  0  0
   17.5275   10.9959   10.5741 N   0  0  0  0  0  0  0  0  0  0  0  0
   18.1443   11.9350   11.3744 C   0  0  0  0  0  0  0  0  0  0  0  0
   17.6825   12.4409   12.3884 O   0  0  0  0  0  0  0  0  0  0  0  0
   19.4604   12.3962   10.8628 C   0  0  1  0  0  0  0  0  0  0  0  0
   20.8239   11.9495   11.3266 C   0  0  0  0  0  0  0  0  0  0  0  0
   20.1962   11.3513   10.1987 O   0  0  0  0  0  0  0  0  0  0  0  0
  1  2  1  0
  2  3  2  0
  3  4  1  0
  4  5  1  0
  4  6  2  0
  6  7  1  0
  6  8  1  0
  8  9  2  0
  9 10  1  0
 10 11  1  0
 11 12  2  0
 13 11  1  1
 13 14  1  0
 14 15  1  0
  9  2  1  0
 15 13  1  0
M  END
>  <HIPPO ID>  (221) 
111763

>  <alias>  (221) 
None

>  <ref_mols>  (221) 
c0692a,c1116a

>  <submitter_email>  (221) 
None

>  <ref_pdb>  (221) 
c0270a

>  <inchikey>  (221) 
DGUKJEUICPIEQN-MRVPVSSYSA-N

>  <generation_date>  (221) 
None

>  <original ID>  (221) 
DGUKJEUICPIEQN-MRVPVSSYSA-N

>  <tags>  (221) 
[]

>  <exports>  (221) 
nan

>  <method>  (221) 
None

>  <submitter_name>  (221) 
None

>  <original SMILES>  (221) 
Nc1cc(F)c(F)cc1NC(=O)[C@H]1CO1

>  <ref_url>  (221) 
None

$$$$
RSNRJZMMCXATBV-UHFFFAOYSA-N
     RDKit          3D

 16 16  0  0  0  0  0  0  0  0999 V2000
   22.2008   12.7899   10.6441 C   0  0  0  0  0  0  0  0  0  0  0  0
   21.5277   11.4323   10.5577 C   0  0  0  0  0  0  0  0  0  0  0  0
   20.1136   11.3553   10.8437 O   0  0  0  0  0  0  0  0  0  0  0  0
   19.3362   12.4465   10.9497 C   0  0  0  0  0  0  0  0  0  0  0  0
   19.6126   13.6161   10.7688 O   0  0  0  0  0  0  0  0  0  0  0  0
   17.9301   12.0058   11.3561 C   0  0  0  0  0  0  0  0  0  0  0  0
   17.3981   12.5623   12.3080 O   0  0  0  0  0  0  0  0  0  0  0  0
   17.3970   11.0004   10.5712 N   0  0  0  0  0  0  0  0  0  0  0  0
   16.3294   10.1621   10.9341 C   0  0  0  0  0  0  0  0  0  0  0  0
   15.8650   10.1251   12.2340 C   0  0  0  0  0  0  0  0  0  0  0  0
   14.9943    9.1245   12.6242 C   0  0  0  0  0  0  0  0  0  0  0  0
   14.4022    9.1874   14.5712 I   0  0  0  0  0  0  0  0  0  0  0  0
   14.5523    8.1576   11.7300 C   0  0  0  0  0  0  0  0  0  0  0  0
   14.9040    8.2748   10.3951 C   0  0  0  0  0  0  0  0  0  0  0  0
   15.8114    9.2582    9.9974 C   0  0  0  0  0  0  0  0  0  0  0  0
   15.9513    9.4700    8.6295 N   0  0  0  0  0  0  0  0  0  0  0  0
  1  2  1  0
  2  3  1  0
  3  4  1  0
  4  5  2  0
  4  6  1  0
  6  7  2  0
  6  8  1  0
  8  9  1  0
  9 10  2  0
 10 11  1  0
 11 12  1  0
 11 13  2  0
 13 14  1  0
 14 15  2  0
 15 16  1  0
 15  9  1  0
M  END
>  <HIPPO ID>  (222) 
111854

>  <alias>  (222) 
None

>  <ref_mols>  (222) 
c0692a,c1116a

>  <submitter_email>  (222) 
None

>  <ref_pdb>  (222) 
c0270a

>  <inchikey>  (222) 
RSNRJZMMCXATBV-UHFFFAOYSA-N

>  <generation_date>  (222) 
None

>  <original ID>  (222) 
RSNRJZMMCXATBV-UHFFFAOYSA-N

>  <tags>  (222) 
[]

>  <exports>  (222) 
nan

>  <method>  (222) 
None

>  <submitter_name>  (222) 
None

>  <original SMILES>  (222) 
CCOC(=O)C(=O)Nc1cc(I)ccc1N

>  <ref_url>  (222) 
None

$$$$
XCPLETZOVZQGJL-UHFFFAOYSA-N
     RDKit          3D

 16 16  0  0  0  0  0  0  0  0999 V2000
   22.3018   11.7595   11.8937 C   0  0  0  0  0  0  0  0  0  0  0  0
   21.6030   11.5712   10.5628 C   0  0  0  0  0  0  0  0  0  0  0  0
   20.1998   11.3436   10.7654 O   0  0  0  0  0  0  0  0  0  0  0  0
   19.4582   12.4616   10.9076 C   0  0  0  0  0  0  0  0  0  0  0  0
   19.8251   13.6185   10.8171 O   0  0  0  0  0  0  0  0  0  0  0  0
   18.0038   12.0915   11.2020 C   0  0  0  0  0  0  0  0  0  0  0  0
   17.3566   12.8196   11.9481 O   0  0  0  0  0  0  0  0  0  0  0  0
   17.5410   10.9822   10.5264 N   0  0  0  0  0  0  0  0  0  0  0  0
   16.3969   10.2216   10.8237 C   0  0  0  0  0  0  0  0  0  0  0  0
   15.9454    9.3656    9.8051 C   0  0  0  0  0  0  0  0  0  0  0  0
   14.9902    8.3876   10.0593 C   0  0  0  0  0  0  0  0  0  0  0  0
   14.5295    8.2182   11.3530 C   0  0  0  0  0  0  0  0  0  0  0  0
   14.9204    9.1212   12.3432 C   0  0  0  0  0  0  0  0  0  0  0  0
   14.2922    8.9837   13.9389 Cl  0  0  0  0  0  0  0  0  0  0  0  0
   15.8014   10.1781   12.0925 C   0  0  0  0  0  0  0  0  0  0  0  0
   16.2532   10.9460   13.1956 N   0  0  0  0  0  0  0  0  0  0  0  0
  1  2  1  0
  2  3  1  0
  3  4  1  0
  4  5  2  0
  4  6  1  0
  6  7  2  0
  6  8  1  0
  8  9  1  0
  9 10  2  0
 10 11  1  0
 11 12  2  0
 12 13  1  0
 13 14  1  0
 13 15  2  0
 15 16  1  0
 15  9  1  0
M  END
>  <HIPPO ID>  (223) 
111863

>  <alias>  (223) 
None

>  <ref_mols>  (223) 
c0692a,c1116a

>  <submitter_email>  (223) 
None

>  <ref_pdb>  (223) 
c0270a

>  <inchikey>  (223) 
XCPLETZOVZQGJL-UHFFFAOYSA-N

>  <generation_date>  (223) 
None

>  <original ID>  (223) 
XCPLETZOVZQGJL-UHFFFAOYSA-N

>  <tags>  (223) 
[]

>  <exports>  (223) 
nan

>  <method>  (223) 
None

>  <submitter_name>  (223) 
None

>  <original SMILES>  (223) 
CCOC(=O)C(=O)Nc1cccc(Cl)c1N

>  <ref_url>  (223) 
None

$$$$
BROXQNBEVBOOCJ-UHFFFAOYSA-N
     RDKit          3D

 16 16  0  0  0  0  0  0  0  0999 V2000
   16.2002    9.4767    8.6094 N   0  0  0  0  0  0  0  0  0  0  0  0
   15.7909    9.4128    9.9348 C   0  0  0  0  0  0  0  0  0  0  0  0
   14.9625    8.3511   10.3038 C   0  0  0  0  0  0  0  0  0  0  0  0
   14.5796    8.1934   11.6283 C   0  0  0  0  0  0  0  0  0  0  0  0
   14.9797    9.1437   12.5593 C   0  0  0  0  0  0  0  0  0  0  0  0
   14.3944    9.1146   14.5113 I   0  0  0  0  0  0  0  0  0  0  0  0
   15.8350   10.1716   12.2119 C   0  0  0  0  0  0  0  0  0  0  0  0
   16.3178   10.2603   10.9191 C   0  0  0  0  0  0  0  0  0  0  0  0
   17.4146   11.1009   10.6427 N   0  0  0  0  0  0  0  0  0  0  0  0
   17.7906   12.1737   11.4252 C   0  0  0  0  0  0  0  0  0  0  0  0
   17.0450   12.7643   12.2084 O   0  0  0  0  0  0  0  0  0  0  0  0
   19.2200   12.6637   11.2507 C   0  0  0  0  0  0  0  0  0  0  0  0
   20.1236   11.7213   10.7077 O   0  0  0  0  0  0  0  0  0  0  0  0
   21.4447   12.2847   10.6577 C   0  0  0  0  0  0  0  0  0  0  0  0
   22.4679   11.2047   10.8897 C   0  0  0  0  0  0  0  0  0  0  0  0
   22.9756   11.2113   12.7834 Br  0  0  0  0  0  0  0  0  0  0  0  0
  1  2  1  0
  2  3  2  0
  3  4  1  0
  4  5  2  0
  5  6  1  0
  5  7  1  0
  7  8  2  0
  8  9  1  0
  9 10  1  0
 10 11  2  0
 10 12  1  0
 12 13  1  0
 13 14  1  0
 14 15  1  0
 15 16  1  0
  8  2  1  0
M  END
>  <HIPPO ID>  (224) 
111888

>  <alias>  (224) 
None

>  <ref_mols>  (224) 
c0692a,c1116a

>  <submitter_email>  (224) 
None

>  <ref_pdb>  (224) 
c0270a

>  <inchikey>  (224) 
BROXQNBEVBOOCJ-UHFFFAOYSA-N

>  <generation_date>  (224) 
None

>  <original ID>  (224) 
BROXQNBEVBOOCJ-UHFFFAOYSA-N

>  <tags>  (224) 
[]

>  <exports>  (224) 
nan

>  <method>  (224) 
None

>  <submitter_name>  (224) 
None

>  <original SMILES>  (224) 
Nc1ccc(I)cc1NC(=O)COCCBr

>  <ref_url>  (224) 
None

$$$$
AWWVSHZULFZCTJ-UHFFFAOYSA-N
     RDKit          3D

 16 16  0  0  0  0  0  0  0  0999 V2000
   16.1892    9.4369    8.6987 N   0  0  0  0  0  0  0  0  0  0  0  0
   15.8577    9.2842   10.0319 C   0  0  0  0  0  0  0  0  0  0  0  0
   14.9917    8.2421   10.3703 C   0  0  0  0  0  0  0  0  0  0  0  0
   14.4957    8.1541   11.6581 C   0  0  0  0  0  0  0  0  0  0  0  0
   14.7701    9.1853   12.5472 C   0  0  0  0  0  0  0  0  0  0  0  0
   14.1338    9.2678   13.7135 F   0  0  0  0  0  0  0  0  0  0  0  0
   15.6329   10.2095   12.2421 C   0  0  0  0  0  0  0  0  0  0  0  0
   16.2328   10.2334   10.9971 C   0  0  0  0  0  0  0  0  0  0  0  0
   17.3083   11.1017   10.7368 N   0  0  0  0  0  0  0  0  0  0  0  0
   17.6542   12.1801   11.5160 C   0  0  0  0  0  0  0  0  0  0  0  0
   16.9126   12.7578   12.3093 O   0  0  0  0  0  0  0  0  0  0  0  0
   19.0703   12.6802   11.3269 C   0  0  0  0  0  0  0  0  0  0  0  0
   19.9837   11.7431   10.7749 O   0  0  0  0  0  0  0  0  0  0  0  0
   21.2866   12.3311   10.8347 C   0  0  0  0  0  0  0  0  0  0  0  0
   22.3693   11.3422   10.4978 C   0  0  0  0  0  0  0  0  0  0  0  0
   24.0612   12.2579   10.8146 Br  0  0  0  0  0  0  0  0  0  0  0  0
  1  2  1  0
  2  3  2  0
  3  4  1  0
  4  5  2  0
  5  6  1  0
  5  7  1  0
  7  8  2  0
  8  9  1  0
  9 10  1  0
 10 11  2  0
 10 12  1  0
 12 13  1  0
 13 14  1  0
 14 15  1  0
 15 16  1  0
  8  2  1  0
M  END
>  <HIPPO ID>  (225) 
111893

>  <alias>  (225) 
None

>  <ref_mols>  (225) 
c0692a,c1116a

>  <submitter_email>  (225) 
None

>  <ref_pdb>  (225) 
c0270a

>  <inchikey>  (225) 
AWWVSHZULFZCTJ-UHFFFAOYSA-N

>  <generation_date>  (225) 
None

>  <original ID>  (225) 
AWWVSHZULFZCTJ-UHFFFAOYSA-N

>  <tags>  (225) 
[]

>  <exports>  (225) 
nan

>  <method>  (225) 
None

>  <submitter_name>  (225) 
None

>  <original SMILES>  (225) 
Nc1ccc(F)cc1NC(=O)COCCBr

>  <ref_url>  (225) 
None

$$$$
PKCPDQULYJLVOV-UHFFFAOYSA-N
     RDKit          3D

 17 17  0  0  0  0  0  0  0  0999 V2000
   16.2967    9.4262    8.6265 N   0  0  0  0  0  0  0  0  0  0  0  0
   15.8305    9.3998    9.9357 C   0  0  0  0  0  0  0  0  0  0  0  0
   14.9984    8.3439   10.3020 C   0  0  0  0  0  0  0  0  0  0  0  0
   14.5184    8.2735   11.5964 C   0  0  0  0  0  0  0  0  0  0  0  0
   14.8066    9.3144   12.4711 C   0  0  0  0  0  0  0  0  0  0  0  0
   14.1779    9.4164   13.6402 F   0  0  0  0  0  0  0  0  0  0  0  0
   15.6988   10.3114   12.1562 C   0  0  0  0  0  0  0  0  0  0  0  0
   16.2944   10.3007   10.9102 C   0  0  0  0  0  0  0  0  0  0  0  0
   17.4220   11.0944   10.6390 N   0  0  0  0  0  0  0  0  0  0  0  0
   17.8897   12.1251   11.4257 C   0  0  0  0  0  0  0  0  0  0  0  0
   17.2258   12.7429   12.2566 O   0  0  0  0  0  0  0  0  0  0  0  0
   19.3454   12.5003   11.1809 C   0  0  0  0  0  0  0  0  0  0  0  0
   20.0715   11.4753   10.5121 O   0  0  0  0  0  0  0  0  0  0  0  0
   21.4728   11.5277   10.8103 C   0  0  0  0  0  0  0  0  0  0  0  0
   22.1636   12.7044   10.1214 C   0  0  0  0  0  0  0  0  0  0  0  0
   23.4148   13.1656   10.8379 C   0  0  0  0  0  0  0  0  0  0  0  0
   22.9169   14.3172   12.3323 Br  0  0  0  0  0  0  0  0  0  0  0  0
  1  2  1  0
  2  3  2  0
  3  4  1  0
  4  5  2  0
  5  6  1  0
  5  7  1  0
  7  8  2  0
  8  9  1  0
  9 10  1  0
 10 11  2  0
 10 12  1  0
 12 13  1  0
 13 14  1  0
 14 15  1  0
 15 16  1  0
 16 17  1  0
  8  2  1  0
M  END
>  <HIPPO ID>  (226) 
111982

>  <alias>  (226) 
None

>  <ref_mols>  (226) 
c0692a,c1116a

>  <submitter_email>  (226) 
None

>  <ref_pdb>  (226) 
c0270a

>  <inchikey>  (226) 
PKCPDQULYJLVOV-UHFFFAOYSA-N

>  <generation_date>  (226) 
None

>  <original ID>  (226) 
PKCPDQULYJLVOV-UHFFFAOYSA-N

>  <tags>  (226) 
[]

>  <exports>  (226) 
nan

>  <method>  (226) 
None

>  <submitter_name>  (226) 
None

>  <original SMILES>  (226) 
Nc1ccc(F)cc1NC(=O)COCCCBr

>  <ref_url>  (226) 
None

$$$$
MHQOXEVGCPHBRB-UHFFFAOYSA-N
     RDKit          3D

 17 17  0  0  0  0  0  0  0  0999 V2000
   16.1999    9.4475    8.6104 N   0  0  0  0  0  0  0  0  0  0  0  0
   15.7635    9.3706    9.9274 C   0  0  0  0  0  0  0  0  0  0  0  0
   14.9417    8.2988   10.2814 C   0  0  0  0  0  0  0  0  0  0  0  0
   14.5530    8.1219   11.6032 C   0  0  0  0  0  0  0  0  0  0  0  0
   14.9437    9.0616   12.5489 C   0  0  0  0  0  0  0  0  0  0  0  0
   14.3654    9.0002   14.5042 I   0  0  0  0  0  0  0  0  0  0  0  0
   15.7840   10.1049   12.2147 C   0  0  0  0  0  0  0  0  0  0  0  0
   16.2678   10.2154   10.9238 C   0  0  0  0  0  0  0  0  0  0  0  0
   17.3478   11.0760   10.6568 N   0  0  0  0  0  0  0  0  0  0  0  0
   17.7209   12.1277   11.4643 C   0  0  0  0  0  0  0  0  0  0  0  0
   16.9877   12.6939   12.2758 O   0  0  0  0  0  0  0  0  0  0  0  0
   19.1417   12.6202   11.2864 C   0  0  0  0  0  0  0  0  0  0  0  0
   20.0437   11.6948   10.7026 O   0  0  0  0  0  0  0  0  0  0  0  0
   21.3563   12.2559   10.7819 C   0  0  0  0  0  0  0  0  0  0  0  0
   22.3688   11.3940   10.0634 C   0  0  0  0  0  0  0  0  0  0  0  0
   23.6927   12.1348   10.0082 C   0  0  0  0  0  0  0  0  0  0  0  0
   24.5245   12.0814    8.2624 Br  0  0  0  0  0  0  0  0  0  0  0  0
  1  2  1  0
  2  3  2  0
  3  4  1  0
  4  5  2  0
  5  6  1  0
  5  7  1  0
  7  8  2  0
  8  9  1  0
  9 10  1  0
 10 11  2  0
 10 12  1  0
 12 13  1  0
 13 14  1  0
 14 15  1  0
 15 16  1  0
 16 17  1  0
  8  2  1  0
M  END
>  <HIPPO ID>  (227) 
111984

>  <alias>  (227) 
None

>  <ref_mols>  (227) 
c0692a,c1116a

>  <submitter_email>  (227) 
None

>  <ref_pdb>  (227) 
c0270a

>  <inchikey>  (227) 
MHQOXEVGCPHBRB-UHFFFAOYSA-N

>  <generation_date>  (227) 
None

>  <original ID>  (227) 
MHQOXEVGCPHBRB-UHFFFAOYSA-N

>  <tags>  (227) 
[]

>  <exports>  (227) 
nan

>  <method>  (227) 
None

>  <submitter_name>  (227) 
None

>  <original SMILES>  (227) 
Nc1ccc(I)cc1NC(=O)COCCCBr

>  <ref_url>  (227) 
None

$$$$
RQLYRSKEUUYRNF-UHFFFAOYSA-N
     RDKit          3D

 17 17  0  0  0  0  0  0  0  0999 V2000
   16.3077   11.1789   13.1823 N   0  0  0  0  0  0  0  0  0  0  0  0
   15.8858   10.3706   12.0934 C   0  0  0  0  0  0  0  0  0  0  0  0
   14.9701    9.3441   12.3479 C   0  0  0  0  0  0  0  0  0  0  0  0
   14.2816    9.2824   13.9234 Cl  0  0  0  0  0  0  0  0  0  0  0  0
   14.6073    8.4052   11.3796 C   0  0  0  0  0  0  0  0  0  0  0  0
   15.1264    8.5111   10.1017 C   0  0  0  0  0  0  0  0  0  0  0  0
   16.1149    9.4578    9.8539 C   0  0  0  0  0  0  0  0  0  0  0  0
   16.5438   10.3454   10.8551 C   0  0  0  0  0  0  0  0  0  0  0  0
   17.7307   11.0579   10.5987 N   0  0  0  0  0  0  0  0  0  0  0  0
   18.1715   12.2032   11.2201 C   0  0  0  0  0  0  0  0  0  0  0  0
   17.4522   12.9977   11.8301 O   0  0  0  0  0  0  0  0  0  0  0  0
   19.6677   12.4711   11.0729 C   0  0  0  0  0  0  0  0  0  0  0  0
   20.3492   11.4389   10.3722 O   0  0  0  0  0  0  0  0  0  0  0  0
   21.7773   11.5289   10.5008 C   0  0  0  0  0  0  0  0  0  0  0  0
   22.3825   12.6165    9.6079 C   0  0  0  0  0  0  0  0  0  0  0  0
   23.8778   12.7607    9.6997 C   0  0  0  0  0  0  0  0  0  0  0  0
   24.3657   13.5397   11.3969 Br  0  0  0  0  0  0  0  0  0  0  0  0
  1  2  1  0
  2  3  2  0
  3  4  1  0
  3  5  1  0
  5  6  2  0
  6  7  1  0
  7  8  2  0
  8  9  1  0
  9 10  1  0
 10 11  2  0
 10 12  1  0
 12 13  1  0
 13 14  1  0
 14 15  1  0
 15 16  1  0
 16 17  1  0
  8  2  1  0
M  END
>  <HIPPO ID>  (228) 
111985

>  <alias>  (228) 
None

>  <ref_mols>  (228) 
c0692a,c1116a

>  <submitter_email>  (228) 
None

>  <ref_pdb>  (228) 
c0270a

>  <inchikey>  (228) 
RQLYRSKEUUYRNF-UHFFFAOYSA-N

>  <generation_date>  (228) 
None

>  <original ID>  (228) 
RQLYRSKEUUYRNF-UHFFFAOYSA-N

>  <tags>  (228) 
[]

>  <exports>  (228) 
nan

>  <method>  (228) 
None

>  <submitter_name>  (228) 
None

>  <original SMILES>  (228) 
Nc1c(Cl)cccc1NC(=O)COCCCBr

>  <ref_url>  (228) 
None

$$$$
HKZYNRSTEVMYGC-UHFFFAOYSA-N
     RDKit          3D

 17 17  0  0  0  0  0  0  0  0999 V2000
   22.4511   12.8883   13.4724 C   0  0  0  0  0  0  0  0  0  0  0  0
   22.3356   12.7245   12.2895 C   0  0  0  0  0  0  0  0  0  0  0  0
   22.2112   12.4739   10.8443 C   0  0  0  0  0  0  0  0  0  0  0  0
   21.3039   11.2705   10.5866 C   0  0  0  0  0  0  0  0  0  0  0  0
   19.9276   11.5669   10.3237 O   0  0  0  0  0  0  0  0  0  0  0  0
   19.3167   12.4865   11.2129 C   0  0  0  0  0  0  0  0  0  0  0  0
   17.8469   12.1617   11.4486 C   0  0  0  0  0  0  0  0  0  0  0  0
   17.1942   12.7963   12.2742 O   0  0  0  0  0  0  0  0  0  0  0  0
   17.3760   11.1189   10.6812 N   0  0  0  0  0  0  0  0  0  0  0  0
   16.2677   10.3071   10.9739 C   0  0  0  0  0  0  0  0  0  0  0  0
   15.6584   10.3529   12.2120 C   0  0  0  0  0  0  0  0  0  0  0  0
   14.7893    9.3460   12.5584 C   0  0  0  0  0  0  0  0  0  0  0  0
   14.1413    9.4821   13.7135 F   0  0  0  0  0  0  0  0  0  0  0  0
   14.5254    8.2683   11.7201 C   0  0  0  0  0  0  0  0  0  0  0  0
   15.0142    8.2986   10.4276 C   0  0  0  0  0  0  0  0  0  0  0  0
   15.8769    9.3255   10.0452 C   0  0  0  0  0  0  0  0  0  0  0  0
   16.1963    9.4324    8.7045 N   0  0  0  0  0  0  0  0  0  0  0  0
  1  2  3  0
  2  3  1  0
  3  4  1  0
  4  5  1  0
  5  6  1  0
  6  7  1  0
  7  8  2  0
  7  9  1  0
  9 10  1  0
 10 11  2  0
 11 12  1  0
 12 13  1  0
 12 14  2  0
 14 15  1  0
 15 16  2  0
 16 17  1  0
 16 10  1  0
M  END
>  <HIPPO ID>  (229) 
111988

>  <alias>  (229) 
None

>  <ref_mols>  (229) 
c0692a,c1116a

>  <submitter_email>  (229) 
None

>  <ref_pdb>  (229) 
c0270a

>  <inchikey>  (229) 
HKZYNRSTEVMYGC-UHFFFAOYSA-N

>  <generation_date>  (229) 
None

>  <original ID>  (229) 
HKZYNRSTEVMYGC-UHFFFAOYSA-N

>  <tags>  (229) 
[]

>  <exports>  (229) 
nan

>  <method>  (229) 
None

>  <submitter_name>  (229) 
None

>  <original SMILES>  (229) 
C#CCCOCC(=O)Nc1cc(F)ccc1N

>  <ref_url>  (229) 
None

$$$$
RDJVTMJKUCZUCW-UHFFFAOYSA-N
     RDKit          3D

 17 17  0  0  0  0  0  0  0  0999 V2000
   22.3091   11.7250   11.8839 C   0  0  0  0  0  0  0  0  0  0  0  0
   21.6049   11.5798   10.5506 C   0  0  0  0  0  0  0  0  0  0  0  0
   20.2041   11.3384   10.7538 O   0  0  0  0  0  0  0  0  0  0  0  0
   19.4529   12.4472   10.9151 C   0  0  0  0  0  0  0  0  0  0  0  0
   19.8075   13.6091   10.8420 O   0  0  0  0  0  0  0  0  0  0  0  0
   18.0031   12.0562   11.2060 C   0  0  0  0  0  0  0  0  0  0  0  0
   17.3529   12.7541   11.9779 O   0  0  0  0  0  0  0  0  0  0  0  0
   17.5464   10.9623   10.5010 N   0  0  0  0  0  0  0  0  0  0  0  0
   16.3927   10.2035   10.7605 C   0  0  0  0  0  0  0  0  0  0  0  0
   15.9222    9.4153    9.6971 C   0  0  0  0  0  0  0  0  0  0  0  0
   14.9233    8.4724    9.8937 C   0  0  0  0  0  0  0  0  0  0  0  0
   14.4650    8.2485   11.1746 C   0  0  0  0  0  0  0  0  0  0  0  0
   13.5400    7.2939   11.3565 F   0  0  0  0  0  0  0  0  0  0  0  0
   14.9087    9.0441   12.2332 C   0  0  0  0  0  0  0  0  0  0  0  0
   14.3135    8.7519   14.0036 Br  0  0  0  0  0  0  0  0  0  0  0  0
   15.8031   10.1007   12.0309 C   0  0  0  0  0  0  0  0  0  0  0  0
   16.2772   10.8142   13.1600 N   0  0  0  0  0  0  0  0  0  0  0  0
  1  2  1  0
  2  3  1  0
  3  4  1  0
  4  5  2  0
  4  6  1  0
  6  7  2  0
  6  8  1  0
  8  9  1  0
  9 10  2  0
 10 11  1  0
 11 12  2  0
 12 13  1  0
 12 14  1  0
 14 15  1  0
 14 16  2  0
 16 17  1  0
 16  9  1  0
M  END
>  <HIPPO ID>  (230) 
111999

>  <alias>  (230) 
None

>  <ref_mols>  (230) 
c0692a,c1116a

>  <submitter_email>  (230) 
None

>  <ref_pdb>  (230) 
c0270a

>  <inchikey>  (230) 
RDJVTMJKUCZUCW-UHFFFAOYSA-N

>  <generation_date>  (230) 
None

>  <original ID>  (230) 
RDJVTMJKUCZUCW-UHFFFAOYSA-N

>  <tags>  (230) 
[]

>  <exports>  (230) 
nan

>  <method>  (230) 
None

>  <submitter_name>  (230) 
None

>  <original SMILES>  (230) 
CCOC(=O)C(=O)Nc1ccc(F)c(Br)c1N

>  <ref_url>  (230) 
None

$$$$
XFKZWRUAXJSFDH-UHFFFAOYSA-N
     RDKit          3D

 17 17  0  0  0  0  0  0  0  0999 V2000
   16.1907    9.4757    8.7174 N   0  0  0  0  0  0  0  0  0  0  0  0
   15.8895    9.3169   10.0588 C   0  0  0  0  0  0  0  0  0  0  0  0
   15.0135    8.2827   10.3992 C   0  0  0  0  0  0  0  0  0  0  0  0
   14.5123    8.2046   11.6847 C   0  0  0  0  0  0  0  0  0  0  0  0
   14.7830    9.2433   12.5655 C   0  0  0  0  0  0  0  0  0  0  0  0
   14.1325    9.3413   13.7227 F   0  0  0  0  0  0  0  0  0  0  0  0
   15.6572   10.2588   12.2598 C   0  0  0  0  0  0  0  0  0  0  0  0
   16.2688   10.2709   11.0198 C   0  0  0  0  0  0  0  0  0  0  0  0
   17.3567   11.1302   10.7662 N   0  0  0  0  0  0  0  0  0  0  0  0
   17.7121   12.2057   11.5494 C   0  0  0  0  0  0  0  0  0  0  0  0
   16.9671   12.7916   12.3342 O   0  0  0  0  0  0  0  0  0  0  0  0
   19.1378   12.6967   11.3728 C   0  0  0  0  0  0  0  0  0  0  0  0
   20.0067   11.8115   10.6876 O   0  0  0  0  0  0  0  0  0  0  0  0
   21.2957   12.4366   10.5884 C   0  0  0  0  0  0  0  0  0  0  0  0
   22.2613   11.5195    9.8741 C   0  0  0  0  0  0  0  0  0  0  0  0
   23.2909   12.2932    9.0629 C   0  0  0  0  0  0  0  0  0  0  0  0
   23.8463   13.3259    9.8663 O   0  0  0  0  0  0  0  0  0  0  0  0
  1  2  1  0
  2  3  2  0
  3  4  1  0
  4  5  2  0
  5  6  1  0
  5  7  1  0
  7  8  2  0
  8  9  1  0
  9 10  1  0
 10 11  2  0
 10 12  1  0
 12 13  1  0
 13 14  1  0
 14 15  1  0
 15 16  1  0
 16 17  1  0
  8  2  1  0
M  END
>  <HIPPO ID>  (231) 
112015

>  <alias>  (231) 
None

>  <ref_mols>  (231) 
c0692a,c1116a

>  <submitter_email>  (231) 
None

>  <ref_pdb>  (231) 
c0270a

>  <inchikey>  (231) 
XFKZWRUAXJSFDH-UHFFFAOYSA-N

>  <generation_date>  (231) 
None

>  <original ID>  (231) 
XFKZWRUAXJSFDH-UHFFFAOYSA-N

>  <tags>  (231) 
[]

>  <exports>  (231) 
nan

>  <method>  (231) 
None

>  <submitter_name>  (231) 
None

>  <original SMILES>  (231) 
Nc1ccc(F)cc1NC(=O)COCCCO

>  <ref_url>  (231) 
None

$$$$
ACWJQZUWPGVZER-UHFFFAOYSA-N
     RDKit          3D

 17 17  0  0  0  0  0  0  0  0999 V2000
   16.1930    9.4649    8.5992 N   0  0  0  0  0  0  0  0  0  0  0  0
   15.7823    9.4132    9.9254 C   0  0  0  0  0  0  0  0  0  0  0  0
   14.9554    8.3574   10.3095 C   0  0  0  0  0  0  0  0  0  0  0  0
   14.5808    8.2175   11.6383 C   0  0  0  0  0  0  0  0  0  0  0  0
   14.9817    9.1829   12.5546 C   0  0  0  0  0  0  0  0  0  0  0  0
   14.4081    9.1742   14.5098 I   0  0  0  0  0  0  0  0  0  0  0  0
   15.8336   10.2080   12.1912 C   0  0  0  0  0  0  0  0  0  0  0  0
   16.3162   10.2695   10.8983 C   0  0  0  0  0  0  0  0  0  0  0  0
   17.4278   11.0793   10.6033 N   0  0  0  0  0  0  0  0  0  0  0  0
   17.8763   12.1257   11.3829 C   0  0  0  0  0  0  0  0  0  0  0  0
   17.1820   12.7540   12.1826 O   0  0  0  0  0  0  0  0  0  0  0  0
   19.3328   12.5147   11.1721 C   0  0  0  0  0  0  0  0  0  0  0  0
   20.1063   11.4817   10.5760 O   0  0  0  0  0  0  0  0  0  0  0  0
   21.4975   11.6093   10.9052 C   0  0  0  0  0  0  0  0  0  0  0  0
   22.1654   12.7566   10.1520 C   0  0  0  0  0  0  0  0  0  0  0  0
   23.4516   13.2193   10.8090 C   0  0  0  0  0  0  0  0  0  0  0  0
   23.1347   14.1018   11.8820 O   0  0  0  0  0  0  0  0  0  0  0  0
  1  2  1  0
  2  3  2  0
  3  4  1  0
  4  5  2  0
  5  6  1  0
  5  7  1  0
  7  8  2  0
  8  9  1  0
  9 10  1  0
 10 11  2  0
 10 12  1  0
 12 13  1  0
 13 14  1  0
 14 15  1  0
 15 16  1  0
 16 17  1  0
  8  2  1  0
M  END
>  <HIPPO ID>  (232) 
112019

>  <alias>  (232) 
None

>  <ref_mols>  (232) 
c0692a,c1116a

>  <submitter_email>  (232) 
None

>  <ref_pdb>  (232) 
c0270a

>  <inchikey>  (232) 
ACWJQZUWPGVZER-UHFFFAOYSA-N

>  <generation_date>  (232) 
None

>  <original ID>  (232) 
ACWJQZUWPGVZER-UHFFFAOYSA-N

>  <tags>  (232) 
[]

>  <exports>  (232) 
nan

>  <method>  (232) 
None

>  <submitter_name>  (232) 
None

>  <original SMILES>  (232) 
Nc1ccc(I)cc1NC(=O)COCCCO

>  <ref_url>  (232) 
None

$$$$
NBWBEGHCVSZIDT-UHFFFAOYSA-N
     RDKit          3D

 17 17  0  0  0  0  0  0  0  0999 V2000
   24.7173   13.2600    9.8271 C   0  0  0  0  0  0  0  0  0  0  0  0
   23.5897   12.8546    9.8651 C   0  0  0  0  0  0  0  0  0  0  0  0
   22.2149   12.3984    9.7394 C   0  0  0  0  0  0  0  0  0  0  0  0
   21.6603   11.5776   10.8914 C   0  0  0  0  0  0  0  0  0  0  0  0
   20.2454   11.3404   10.7256 O   0  0  0  0  0  0  0  0  0  0  0  0
   19.4611   12.4433   11.1572 C   0  0  0  0  0  0  0  0  0  0  0  0
   17.9827   12.1054   11.3425 C   0  0  0  0  0  0  0  0  0  0  0  0
   17.2901   12.7787   12.1071 O   0  0  0  0  0  0  0  0  0  0  0  0
   17.5099   11.0568   10.5795 N   0  0  0  0  0  0  0  0  0  0  0  0
   16.3702   10.2862   10.8831 C   0  0  0  0  0  0  0  0  0  0  0  0
   15.8825   10.2579   12.1748 C   0  0  0  0  0  0  0  0  0  0  0  0
   15.0116    9.2537   12.5532 C   0  0  0  0  0  0  0  0  0  0  0  0
   14.4327    9.2858   14.5051 I   0  0  0  0  0  0  0  0  0  0  0  0
   14.5995    8.2764   11.6545 C   0  0  0  0  0  0  0  0  0  0  0  0
   14.9725    8.3898   10.3237 C   0  0  0  0  0  0  0  0  0  0  0  0
   15.8136    9.4278    9.9239 C   0  0  0  0  0  0  0  0  0  0  0  0
   16.2100    9.4608    8.5932 N   0  0  0  0  0  0  0  0  0  0  0  0
  1  2  3  0
  2  3  1  0
  3  4  1  0
  4  5  1  0
  5  6  1  0
  6  7  1  0
  7  8  2  0
  7  9  1  0
  9 10  1  0
 10 11  2  0
 11 12  1  0
 12 13  1  0
 12 14  2  0
 14 15  1  0
 15 16  2  0
 16 17  1  0
 16 10  1  0
M  END
>  <HIPPO ID>  (233) 
112021

>  <alias>  (233) 
None

>  <ref_mols>  (233) 
c0692a,c1116a

>  <submitter_email>  (233) 
None

>  <ref_pdb>  (233) 
c0270a

>  <inchikey>  (233) 
NBWBEGHCVSZIDT-UHFFFAOYSA-N

>  <generation_date>  (233) 
None

>  <original ID>  (233) 
NBWBEGHCVSZIDT-UHFFFAOYSA-N

>  <tags>  (233) 
[]

>  <exports>  (233) 
nan

>  <method>  (233) 
None

>  <submitter_name>  (233) 
None

>  <original SMILES>  (233) 
C#CCCOCC(=O)Nc1cc(I)ccc1N

>  <ref_url>  (233) 
None

$$$$
RBOBBTALVDTASJ-UHFFFAOYSA-N
     RDKit          3D

 17 17  0  0  0  0  0  0  0  0999 V2000
   22.0782   11.8790   12.2507 C   0  0  0  0  0  0  0  0  0  0  0  0
   21.5098   11.9926   10.8375 C   0  0  0  0  0  0  0  0  0  0  0  0
   21.8856   13.3443   10.2345 C   0  0  0  0  0  0  0  0  0  0  0  0
   22.1491   10.8962   10.0297 C   0  0  0  0  0  0  0  0  0  0  0  0
   20.1021   11.7007   10.7789 O   0  0  0  0  0  0  0  0  0  0  0  0
   19.2548   12.6918   11.3197 C   0  0  0  0  0  0  0  0  0  0  0  0
   17.8171   12.2153   11.5006 C   0  0  0  0  0  0  0  0  0  0  0  0
   17.0832   12.8052   12.2941 O   0  0  0  0  0  0  0  0  0  0  0  0
   17.4300   11.1515   10.7082 N   0  0  0  0  0  0  0  0  0  0  0  0
   16.3140   10.3236   10.9506 C   0  0  0  0  0  0  0  0  0  0  0  0
   15.7036   10.3113   12.1913 C   0  0  0  0  0  0  0  0  0  0  0  0
   14.8090    9.3099   12.4877 C   0  0  0  0  0  0  0  0  0  0  0  0
   14.1682    9.4006   13.6510 F   0  0  0  0  0  0  0  0  0  0  0  0
   14.5309    8.2783   11.6012 C   0  0  0  0  0  0  0  0  0  0  0  0
   15.0295    8.3617   10.3155 C   0  0  0  0  0  0  0  0  0  0  0  0
   15.8660    9.4228    9.9666 C   0  0  0  0  0  0  0  0  0  0  0  0
   16.3323    9.4503    8.6580 N   0  0  0  0  0  0  0  0  0  0  0  0
  1  2  1  0
  2  3  1  0
  2  4  1  0
  2  5  1  0
  5  6  1  0
  6  7  1  0
  7  8  2  0
  7  9  1  0
  9 10  1  0
 10 11  2  0
 11 12  1  0
 12 13  1  0
 12 14  2  0
 14 15  1  0
 15 16  2  0
 16 17  1  0
 16 10  1  0
M  END
>  <HIPPO ID>  (234) 
112029

>  <alias>  (234) 
None

>  <ref_mols>  (234) 
c0692a,c1116a

>  <submitter_email>  (234) 
None

>  <ref_pdb>  (234) 
c0270a

>  <inchikey>  (234) 
RBOBBTALVDTASJ-UHFFFAOYSA-N

>  <generation_date>  (234) 
None

>  <original ID>  (234) 
RBOBBTALVDTASJ-UHFFFAOYSA-N

>  <tags>  (234) 
[]

>  <exports>  (234) 
nan

>  <method>  (234) 
None

>  <submitter_name>  (234) 
None

>  <original SMILES>  (234) 
CC(C)(C)OCC(=O)Nc1cc(F)ccc1N

>  <ref_url>  (234) 
None

$$$$
ZAPBGFAGCRVIHT-UHFFFAOYSA-N
     RDKit          3D

 17 17  0  0  0  0  0  0  0  0999 V2000
   22.1087   11.3337   11.7723 C   0  0  0  0  0  0  0  0  0  0  0  0
   21.6388   12.2172   10.6310 C   0  0  0  0  0  0  0  0  0  0  0  0
   21.9052   13.7033   10.8921 C   0  0  0  0  0  0  0  0  0  0  0  0
   22.4945   11.8347    9.4331 C   0  0  0  0  0  0  0  0  0  0  0  0
   20.2428   11.9138   10.3705 O   0  0  0  0  0  0  0  0  0  0  0  0
   19.3408   12.6237   11.1968 C   0  0  0  0  0  0  0  0  0  0  0  0
   17.9035   12.1345   11.3578 C   0  0  0  0  0  0  0  0  0  0  0  0
   17.1615   12.7381   12.1375 O   0  0  0  0  0  0  0  0  0  0  0  0
   17.5193   11.0488   10.6035 N   0  0  0  0  0  0  0  0  0  0  0  0
   16.3930   10.2464   10.8905 C   0  0  0  0  0  0  0  0  0  0  0  0
   15.9075   10.1850   12.1843 C   0  0  0  0  0  0  0  0  0  0  0  0
   15.0172    9.1904   12.5426 C   0  0  0  0  0  0  0  0  0  0  0  0
   14.4210    9.2097   14.4909 I   0  0  0  0  0  0  0  0  0  0  0  0
   14.5927    8.2394   11.6240 C   0  0  0  0  0  0  0  0  0  0  0  0
   14.9757    8.3738   10.2977 C   0  0  0  0  0  0  0  0  0  0  0  0
   15.8301    9.4105    9.9172 C   0  0  0  0  0  0  0  0  0  0  0  0
   16.2212    9.4625    8.5866 N   0  0  0  0  0  0  0  0  0  0  0  0
  1  2  1  0
  2  3  1  0
  2  4  1  0
  2  5  1  0
  5  6  1  0
  6  7  1  0
  7  8  2  0
  7  9  1  0
  9 10  1  0
 10 11  2  0
 11 12  1  0
 12 13  1  0
 12 14  2  0
 14 15  1  0
 15 16  2  0
 16 17  1  0
 16 10  1  0
M  END
>  <HIPPO ID>  (235) 
112031

>  <alias>  (235) 
None

>  <ref_mols>  (235) 
c0692a,c1116a

>  <submitter_email>  (235) 
None

>  <ref_pdb>  (235) 
c0270a

>  <inchikey>  (235) 
ZAPBGFAGCRVIHT-UHFFFAOYSA-N

>  <generation_date>  (235) 
None

>  <original ID>  (235) 
ZAPBGFAGCRVIHT-UHFFFAOYSA-N

>  <tags>  (235) 
[]

>  <exports>  (235) 
nan

>  <method>  (235) 
None

>  <submitter_name>  (235) 
None

>  <original SMILES>  (235) 
CC(C)(C)OCC(=O)Nc1cc(I)ccc1N

>  <ref_url>  (235) 
None

$$$$
VKICGRKEGWGYRG-UHFFFAOYSA-N
     RDKit          3D

 17 17  0  0  0  0  0  0  0  0999 V2000
   22.3056   12.0030    9.9110 C   0  0  0  0  0  0  0  0  0  0  0  0
   21.5502   11.5748   11.1464 C   0  0  0  0  0  0  0  0  0  0  0  0
   20.1561   11.3313   10.8998 O   0  0  0  0  0  0  0  0  0  0  0  0
   19.3663   12.4194   11.0170 C   0  0  0  0  0  0  0  0  0  0  0  0
   19.6869   13.5900   10.9467 O   0  0  0  0  0  0  0  0  0  0  0  0
   17.9416   11.9727   11.3617 C   0  0  0  0  0  0  0  0  0  0  0  0
   17.3791   12.5026   12.3115 O   0  0  0  0  0  0  0  0  0  0  0  0
   17.4282   10.9835   10.5475 N   0  0  0  0  0  0  0  0  0  0  0  0
   16.2979   10.1975   10.8283 C   0  0  0  0  0  0  0  0  0  0  0  0
   15.7300   10.1579   12.0862 C   0  0  0  0  0  0  0  0  0  0  0  0
   14.7863    9.1917   12.3529 C   0  0  0  0  0  0  0  0  0  0  0  0
   14.1816    9.2640   13.5374 F   0  0  0  0  0  0  0  0  0  0  0  0
   14.4227    8.2404   11.4032 C   0  0  0  0  0  0  0  0  0  0  0  0
   13.5076    7.2984   11.6711 F   0  0  0  0  0  0  0  0  0  0  0  0
   14.9032    8.3405   10.1208 C   0  0  0  0  0  0  0  0  0  0  0  0
   15.7872    9.3664    9.8155 C   0  0  0  0  0  0  0  0  0  0  0  0
   16.2587    9.4331    8.5161 N   0  0  0  0  0  0  0  0  0  0  0  0
  1  2  1  0
  2  3  1  0
  3  4  1  0
  4  5  2  0
  4  6  1  0
  6  7  2  0
  6  8  1  0
  8  9  1  0
  9 10  2  0
 10 11  1  0
 11 12  1  0
 11 13  2  0
 13 14  1  0
 13 15  1  0
 15 16  2  0
 16 17  1  0
 16  9  1  0
M  END
>  <HIPPO ID>  (236) 
112052

>  <alias>  (236) 
None

>  <ref_mols>  (236) 
c0692a,c1116a

>  <submitter_email>  (236) 
None

>  <ref_pdb>  (236) 
c0270a

>  <inchikey>  (236) 
VKICGRKEGWGYRG-UHFFFAOYSA-N

>  <generation_date>  (236) 
None

>  <original ID>  (236) 
VKICGRKEGWGYRG-UHFFFAOYSA-N

>  <tags>  (236) 
[]

>  <exports>  (236) 
nan

>  <method>  (236) 
None

>  <submitter_name>  (236) 
None

>  <original SMILES>  (236) 
CCOC(=O)C(=O)Nc1cc(F)c(F)cc1N

>  <ref_url>  (236) 
None

$$$$
BMMZYNSLPHQLAM-UHFFFAOYSA-N
     RDKit          3D

 17 17  0  0  0  0  0  0  0  0999 V2000
   22.1366   11.0465   10.3786 C   0  0  0  0  0  0  0  0  0  0  0  0
   21.2427   12.1624   10.8332 C   0  0  0  0  0  0  0  0  0  0  0  0
   19.9081   11.6500   10.8959 O   0  0  0  0  0  0  0  0  0  0  0  0
   19.0191   12.6069   11.2256 C   0  0  0  0  0  0  0  0  0  0  0  0
   19.2134   13.8054   11.2829 O   0  0  0  0  0  0  0  0  0  0  0  0
   17.6974   11.9567   11.6255 C   0  0  0  0  0  0  0  0  0  0  0  0
   17.2378   12.2282   12.7278 O   0  0  0  0  0  0  0  0  0  0  0  0
   17.1587   11.0978   10.6901 N   0  0  0  0  0  0  0  0  0  0  0  0
   16.1464   10.1564   10.9372 C   0  0  0  0  0  0  0  0  0  0  0  0
   15.8107    9.7595   12.2154 C   0  0  0  0  0  0  0  0  0  0  0  0
   14.9277    8.7042   12.4041 C   0  0  0  0  0  0  0  0  0  0  0  0
   14.3991    8.4617   14.1859 Br  0  0  0  0  0  0  0  0  0  0  0  0
   14.4231    7.9839   11.3218 C   0  0  0  0  0  0  0  0  0  0  0  0
   13.4232    6.5853   11.4678 Cl  0  0  0  0  0  0  0  0  0  0  0  0
   14.6457    8.4706   10.0464 C   0  0  0  0  0  0  0  0  0  0  0  0
   15.4626    9.5855    9.8605 C   0  0  0  0  0  0  0  0  0  0  0  0
   15.3975   10.2484    8.6467 N   0  0  0  0  0  0  0  0  0  0  0  0
  1  2  1  0
  2  3  1  0
  3  4  1  0
  4  5  2  0
  4  6  1  0
  6  7  2  0
  6  8  1  0
  8  9  1  0
  9 10  2  0
 10 11  1  0
 11 12  1  0
 11 13  2  0
 13 14  1  0
 13 15  1  0
 15 16  2  0
 16 17  1  0
 16  9  1  0
M  END
>  <HIPPO ID>  (237) 
112084

>  <alias>  (237) 
None

>  <ref_mols>  (237) 
c0692a,c1116a

>  <submitter_email>  (237) 
None

>  <ref_pdb>  (237) 
c0270a

>  <inchikey>  (237) 
BMMZYNSLPHQLAM-UHFFFAOYSA-N

>  <generation_date>  (237) 
None

>  <original ID>  (237) 
BMMZYNSLPHQLAM-UHFFFAOYSA-N

>  <tags>  (237) 
[]

>  <exports>  (237) 
nan

>  <method>  (237) 
None

>  <submitter_name>  (237) 
None

>  <original SMILES>  (237) 
CCOC(=O)C(=O)Nc1cc(Br)c(Cl)cc1N

>  <ref_url>  (237) 
None

$$$$
FEIRJSLBUSGULH-UHFFFAOYSA-N
     RDKit          3D

 17 17  0  0  0  0  0  0  0  0999 V2000
   22.1971   12.3514   11.6266 C   0  0  0  0  0  0  0  0  0  0  0  0
   21.4953   11.4226   10.6542 C   0  0  0  0  0  0  0  0  0  0  0  0
   20.0859   11.2870   10.9129 O   0  0  0  0  0  0  0  0  0  0  0  0
   19.3453   12.4109   10.8660 C   0  0  0  0  0  0  0  0  0  0  0  0
   19.7130   13.5346   10.5757 O   0  0  0  0  0  0  0  0  0  0  0  0
   17.8910   12.0996   11.2446 C   0  0  0  0  0  0  0  0  0  0  0  0
   17.3193   12.8868   11.9852 O   0  0  0  0  0  0  0  0  0  0  0  0
   17.3646   10.9848   10.6306 N   0  0  0  0  0  0  0  0  0  0  0  0
   16.2339   10.2082   10.9796 C   0  0  0  0  0  0  0  0  0  0  0  0
   15.7390    9.3711    9.9522 C   0  0  0  0  0  0  0  0  0  0  0  0
   16.1850    9.4755    8.6359 N   0  0  0  0  0  0  0  0  0  0  0  0
   14.9274    8.2856   10.2526 C   0  0  0  0  0  0  0  0  0  0  0  0
   14.5186    8.0790   11.5527 C   0  0  0  0  0  0  0  0  0  0  0  0
   14.8457    9.0118   12.5460 C   0  0  0  0  0  0  0  0  0  0  0  0
   14.2709    8.8384   13.9135 C   0  0  0  0  0  0  0  0  0  0  0  0
   15.7002   10.0990   12.2745 C   0  0  0  0  0  0  0  0  0  0  0  0
   16.0015   11.0577   13.3899 C   0  0  0  0  0  0  0  0  0  0  0  0
  1  2  1  0
  2  3  1  0
  3  4  1  0
  4  5  2  0
  4  6  1  0
  6  7  2  0
  6  8  1  0
  8  9  1  0
  9 10  2  0
 10 11  1  0
 10 12  1  0
 12 13  2  0
 13 14  1  0
 14 15  1  0
 14 16  2  0
 16 17  1  0
 16  9  1  0
M  END
>  <HIPPO ID>  (238) 
112086

>  <alias>  (238) 
None

>  <ref_mols>  (238) 
c0692a,c1116a

>  <submitter_email>  (238) 
None

>  <ref_pdb>  (238) 
c0270a

>  <inchikey>  (238) 
FEIRJSLBUSGULH-UHFFFAOYSA-N

>  <generation_date>  (238) 
None

>  <original ID>  (238) 
FEIRJSLBUSGULH-UHFFFAOYSA-N

>  <tags>  (238) 
[]

>  <exports>  (238) 
nan

>  <method>  (238) 
None

>  <submitter_name>  (238) 
None

>  <original SMILES>  (238) 
CCOC(=O)C(=O)Nc1c(N)ccc(C)c1C

>  <ref_url>  (238) 
None

$$$$
ZZQPVNAJEMDATA-UHFFFAOYSA-N
     RDKit          3D

 17 17  0  0  0  0  0  0  0  0999 V2000
   22.2388   12.5405   10.1133 C   0  0  0  0  0  0  0  0  0  0  0  0
   21.4895   11.6148   11.0506 C   0  0  0  0  0  0  0  0  0  0  0  0
   20.0982   11.4489   10.7331 O   0  0  0  0  0  0  0  0  0  0  0  0
   19.3211   12.4982   11.0746 C   0  0  0  0  0  0  0  0  0  0  0  0
   19.6753   13.6436   11.2895 O   0  0  0  0  0  0  0  0  0  0  0  0
   17.8653   12.0567   11.2682 C   0  0  0  0  0  0  0  0  0  0  0  0
   17.1607   12.7027   12.0389 O   0  0  0  0  0  0  0  0  0  0  0  0
   17.4605   10.9744   10.5175 N   0  0  0  0  0  0  0  0  0  0  0  0
   16.3283   10.1685   10.7414 C   0  0  0  0  0  0  0  0  0  0  0  0
   15.8702    9.4326    9.6449 C   0  0  0  0  0  0  0  0  0  0  0  0
   14.9294    8.4231    9.8011 C   0  0  0  0  0  0  0  0  0  0  0  0
   14.5192    8.0564   11.0725 C   0  0  0  0  0  0  0  0  0  0  0  0
   13.4089    6.2722   11.2046 I   0  0  0  0  0  0  0  0  0  0  0  0
   14.9059    8.8460   12.1630 C   0  0  0  0  0  0  0  0  0  0  0  0
   14.3657    8.5504   13.7735 Cl  0  0  0  0  0  0  0  0  0  0  0  0
   15.7517    9.9631   12.0048 C   0  0  0  0  0  0  0  0  0  0  0  0
   16.2162   10.6347   13.1695 N   0  0  0  0  0  0  0  0  0  0  0  0
  1  2  1  0
  2  3  1  0
  3  4  1  0
  4  5  2  0
  4  6  1  0
  6  7  2  0
  6  8  1  0
  8  9  1  0
  9 10  2  0
 10 11  1  0
 11 12  2  0
 12 13  1  0
 12 14  1  0
 14 15  1  0
 14 16  2  0
 16 17  1  0
 16  9  1  0
M  END
>  <HIPPO ID>  (239) 
112095

>  <alias>  (239) 
None

>  <ref_mols>  (239) 
c0692a,c1116a

>  <submitter_email>  (239) 
None

>  <ref_pdb>  (239) 
c0270a

>  <inchikey>  (239) 
ZZQPVNAJEMDATA-UHFFFAOYSA-N

>  <generation_date>  (239) 
None

>  <original ID>  (239) 
ZZQPVNAJEMDATA-UHFFFAOYSA-N

>  <tags>  (239) 
[]

>  <exports>  (239) 
nan

>  <method>  (239) 
None

>  <submitter_name>  (239) 
None

>  <original SMILES>  (239) 
CCOC(=O)C(=O)Nc1ccc(I)c(Cl)c1N

>  <ref_url>  (239) 
None

$$$$
UGLHAJSPXOWHSE-UHFFFAOYSA-N
     RDKit          3D

 17 17  0  0  0  0  0  0  0  0999 V2000
   22.3225   11.7735   11.8483 C   0  0  0  0  0  0  0  0  0  0  0  0
   21.5202   11.5983   10.5749 C   0  0  0  0  0  0  0  0  0  0  0  0
   20.1249   11.4810   10.8951 O   0  0  0  0  0  0  0  0  0  0  0  0
   19.4737   12.6561   11.0375 C   0  0  0  0  0  0  0  0  0  0  0  0
   19.8666   13.7740   10.7677 O   0  0  0  0  0  0  0  0  0  0  0  0
   18.0876   12.3943   11.6205 C   0  0  0  0  0  0  0  0  0  0  0  0
   17.7175   13.0202   12.6027 O   0  0  0  0  0  0  0  0  0  0  0  0
   17.3721   11.4367   10.9469 N   0  0  0  0  0  0  0  0  0  0  0  0
   16.2787   10.7415   11.4805 C   0  0  0  0  0  0  0  0  0  0  0  0
   15.9899   10.7234   12.8264 C   0  0  0  0  0  0  0  0  0  0  0  0
   15.1538    9.7382   13.3176 C   0  0  0  0  0  0  0  0  0  0  0  0
   14.6932    9.8250   15.1085 Br  0  0  0  0  0  0  0  0  0  0  0  0
   14.6424    8.7377   12.5191 C   0  0  0  0  0  0  0  0  0  0  0  0
   14.7632    8.8907   11.1582 C   0  0  0  0  0  0  0  0  0  0  0  0
   15.5545    9.9215   10.6286 C   0  0  0  0  0  0  0  0  0  0  0  0
   15.5425   10.1936    9.2594 N   0  0  0  0  0  0  0  0  0  0  0  0
   15.6575    8.9626    8.5628 C   0  0  0  0  0  0  0  0  0  0  0  0
  1  2  1  0
  2  3  1  0
  3  4  1  0
  4  5  2  0
  4  6  1  0
  6  7  2  0
  6  8  1  0
  8  9  1  0
  9 10  2  0
 10 11  1  0
 11 12  1  0
 11 13  2  0
 13 14  1  0
 14 15  2  0
 15 16  1  0
 16 17  1  0
 15  9  1  0
M  END
>  <HIPPO ID>  (240) 
112099

>  <alias>  (240) 
None

>  <ref_mols>  (240) 
c0692a,c1116a

>  <submitter_email>  (240) 
None

>  <ref_pdb>  (240) 
c0270a

>  <inchikey>  (240) 
UGLHAJSPXOWHSE-UHFFFAOYSA-N

>  <generation_date>  (240) 
None

>  <original ID>  (240) 
UGLHAJSPXOWHSE-UHFFFAOYSA-N

>  <tags>  (240) 
[]

>  <exports>  (240) 
nan

>  <method>  (240) 
None

>  <submitter_name>  (240) 
None

>  <original SMILES>  (240) 
CCOC(=O)C(=O)Nc1cc(Br)ccc1NC

>  <ref_url>  (240) 
None

$$$$
GBUSDNVEDOBYSJ-UHFFFAOYSA-N
     RDKit          3D

 17 17  0  0  0  0  0  0  0  0999 V2000
   22.3825   11.9298    9.8865 C   0  0  0  0  0  0  0  0  0  0  0  0
   21.6227   11.5330   11.1297 C   0  0  0  0  0  0  0  0  0  0  0  0
   20.2241   11.3274   10.8832 O   0  0  0  0  0  0  0  0  0  0  0  0
   19.4702   12.4421   10.9642 C   0  0  0  0  0  0  0  0  0  0  0  0
   19.8407   13.6005   10.9249 O   0  0  0  0  0  0  0  0  0  0  0  0
   18.0062   12.0641   11.1968 C   0  0  0  0  0  0  0  0  0  0  0  0
   17.3344   12.7757   11.9379 O   0  0  0  0  0  0  0  0  0  0  0  0
   17.5673   10.9584   10.5033 N   0  0  0  0  0  0  0  0  0  0  0  0
   16.3991   10.2127   10.7427 C   0  0  0  0  0  0  0  0  0  0  0  0
   15.9488    9.4255    9.6720 C   0  0  0  0  0  0  0  0  0  0  0  0
   14.9382    8.4961    9.8487 C   0  0  0  0  0  0  0  0  0  0  0  0
   14.4617    8.2755   11.1210 C   0  0  0  0  0  0  0  0  0  0  0  0
   13.5389    7.3166   11.2908 F   0  0  0  0  0  0  0  0  0  0  0  0
   14.8793    9.0637   12.2023 C   0  0  0  0  0  0  0  0  0  0  0  0
   14.3845    8.7940   13.5826 C   0  0  0  0  0  0  0  0  0  0  0  0
   15.7702   10.1253   11.9992 C   0  0  0  0  0  0  0  0  0  0  0  0
   16.2054   10.8542   13.1312 N   0  0  0  0  0  0  0  0  0  0  0  0
  1  2  1  0
  2  3  1  0
  3  4  1  0
  4  5  2  0
  4  6  1  0
  6  7  2  0
  6  8  1  0
  8  9  1  0
  9 10  2  0
 10 11  1  0
 11 12  2  0
 12 13  1  0
 12 14  1  0
 14 15  1  0
 14 16  2  0
 16 17  1  0
 16  9  1  0
M  END
>  <HIPPO ID>  (241) 
112124

>  <alias>  (241) 
None

>  <ref_mols>  (241) 
c0692a,c1116a

>  <submitter_email>  (241) 
None

>  <ref_pdb>  (241) 
c0270a

>  <inchikey>  (241) 
GBUSDNVEDOBYSJ-UHFFFAOYSA-N

>  <generation_date>  (241) 
None

>  <original ID>  (241) 
GBUSDNVEDOBYSJ-UHFFFAOYSA-N

>  <tags>  (241) 
[]

>  <exports>  (241) 
nan

>  <method>  (241) 
None

>  <submitter_name>  (241) 
None

>  <original SMILES>  (241) 
CCOC(=O)C(=O)Nc1ccc(F)c(C)c1N

>  <ref_url>  (241) 
None

$$$$
FGRFEFUBCMPGIU-UHFFFAOYSA-N
     RDKit          3D

 17 17  0  0  0  0  0  0  0  0999 V2000
   14.7874    8.4563    9.0333 C   0  0  0  0  0  0  0  0  0  0  0  0
   15.7960    9.5025    9.0488 N   0  0  0  0  0  0  0  0  0  0  0  0
   15.5390   10.3918   10.0807 C   0  0  0  0  0  0  0  0  0  0  0  0
   14.2792   10.9670   10.1303 C   0  0  0  0  0  0  0  0  0  0  0  0
   13.8827   11.7610   11.1881 C   0  0  0  0  0  0  0  0  0  0  0  0
   14.6706   11.7892   12.3121 C   0  0  0  0  0  0  0  0  0  0  0  0
   14.1826   12.8170   13.7836 Br  0  0  0  0  0  0  0  0  0  0  0  0
   15.9190   11.2153   12.3001 C   0  0  0  0  0  0  0  0  0  0  0  0
   16.4165   10.7357   11.0944 C   0  0  0  0  0  0  0  0  0  0  0  0
   17.7922   10.8989   10.8469 N   0  0  0  0  0  0  0  0  0  0  0  0
   18.3746   12.1042   11.2611 C   0  0  0  0  0  0  0  0  0  0  0  0
   17.7879   13.0214   11.8415 O   0  0  0  0  0  0  0  0  0  0  0  0
   19.8468   12.2598   10.9637 C   0  0  0  0  0  0  0  0  0  0  0  0
   20.3785   11.0844   10.3880 O   0  0  0  0  0  0  0  0  0  0  0  0
   21.7456   10.8922   10.7447 C   0  0  0  0  0  0  0  0  0  0  0  0
   22.6963   11.7378    9.9292 C   0  0  0  0  0  0  0  0  0  0  0  0
   24.1277   12.4017   11.0646 Br  0  0  0  0  0  0  0  0  0  0  0  0
  1  2  1  0
  2  3  1  0
  3  4  2  0
  4  5  1  0
  5  6  2  0
  6  7  1  0
  6  8  1  0
  8  9  2  0
  9 10  1  0
 10 11  1  0
 11 12  2  0
 11 13  1  0
 13 14  1  0
 14 15  1  0
 15 16  1  0
 16 17  1  0
  9  3  1  0
M  END
>  <HIPPO ID>  (242) 
112157

>  <alias>  (242) 
None

>  <ref_mols>  (242) 
c0692a,c1116a

>  <submitter_email>  (242) 
None

>  <ref_pdb>  (242) 
c0270a

>  <inchikey>  (242) 
FGRFEFUBCMPGIU-UHFFFAOYSA-N

>  <generation_date>  (242) 
None

>  <original ID>  (242) 
FGRFEFUBCMPGIU-UHFFFAOYSA-N

>  <tags>  (242) 
[]

>  <exports>  (242) 
nan

>  <method>  (242) 
None

>  <submitter_name>  (242) 
None

>  <original SMILES>  (242) 
CNc1ccc(Br)cc1NC(=O)COCCBr

>  <ref_url>  (242) 
None

$$$$
CXLREPQOUSUKSN-UHFFFAOYSA-N
     RDKit          3D

 17 17  0  0  0  0  0  0  0  0999 V2000
   16.2635    9.4888    8.6341 N   0  0  0  0  0  0  0  0  0  0  0  0
   15.8193    9.4091    9.9479 C   0  0  0  0  0  0  0  0  0  0  0  0
   14.9626    8.3494   10.2393 C   0  0  0  0  0  0  0  0  0  0  0  0
   14.4793    8.2062   11.5173 C   0  0  0  0  0  0  0  0  0  0  0  0
   14.7860    9.1860   12.4529 C   0  0  0  0  0  0  0  0  0  0  0  0
   14.1309    9.1827   13.6153 F   0  0  0  0  0  0  0  0  0  0  0  0
   15.7104   10.1967   12.2212 C   0  0  0  0  0  0  0  0  0  0  0  0
   16.1018   11.2409   13.7543 Br  0  0  0  0  0  0  0  0  0  0  0  0
   16.3213   10.2530   10.9700 C   0  0  0  0  0  0  0  0  0  0  0  0
   17.5104   10.9635   10.6757 N   0  0  0  0  0  0  0  0  0  0  0  0
   17.9630   12.1327   11.2403 C   0  0  0  0  0  0  0  0  0  0  0  0
   17.2390   12.9988   11.7276 O   0  0  0  0  0  0  0  0  0  0  0  0
   19.4769   12.3591   11.1388 C   0  0  0  0  0  0  0  0  0  0  0  0
   20.2049   11.1699   10.8766 O   0  0  0  0  0  0  0  0  0  0  0  0
   21.5844   11.3731   10.5411 C   0  0  0  0  0  0  0  0  0  0  0  0
   22.4465   12.0673   11.5799 C   0  0  0  0  0  0  0  0  0  0  0  0
   22.9812   10.8673   12.9988 Br  0  0  0  0  0  0  0  0  0  0  0  0
  1  2  1  0
  2  3  2  0
  3  4  1  0
  4  5  2  0
  5  6  1  0
  5  7  1  0
  7  8  1  0
  7  9  2  0
  9 10  1  0
 10 11  1  0
 11 12  2  0
 11 13  1  0
 13 14  1  0
 14 15  1  0
 15 16  1  0
 16 17  1  0
  9  2  1  0
M  END
>  <HIPPO ID>  (243) 
112158

>  <alias>  (243) 
None

>  <ref_mols>  (243) 
c0692a,c1116a

>  <submitter_email>  (243) 
None

>  <ref_pdb>  (243) 
c0270a

>  <inchikey>  (243) 
CXLREPQOUSUKSN-UHFFFAOYSA-N

>  <generation_date>  (243) 
None

>  <original ID>  (243) 
CXLREPQOUSUKSN-UHFFFAOYSA-N

>  <tags>  (243) 
[]

>  <exports>  (243) 
nan

>  <method>  (243) 
None

>  <submitter_name>  (243) 
None

>  <original SMILES>  (243) 
Nc1ccc(F)c(Br)c1NC(=O)COCCBr

>  <ref_url>  (243) 
None

$$$$
RVOMVFLARSPDTA-UHFFFAOYSA-N
     RDKit          3D

 17 17  0  0  0  0  0  0  0  0999 V2000
   16.1694   10.7542   13.3268 N   0  0  0  0  0  0  0  0  0  0  0  0
   15.7966   10.0870   12.1214 C   0  0  0  0  0  0  0  0  0  0  0  0
   16.4495   10.3426   10.9022 C   0  0  0  0  0  0  0  0  0  0  0  0
   17.5429   11.2362   10.7801 N   0  0  0  0  0  0  0  0  0  0  0  0
   17.7136   12.3941   11.5053 C   0  0  0  0  0  0  0  0  0  0  0  0
   16.8231   12.9417   12.1615 O   0  0  0  0  0  0  0  0  0  0  0  0
   19.1147   12.9992   11.5117 C   0  0  0  0  0  0  0  0  0  0  0  0
   19.9325   12.7494   10.3901 O   0  0  0  0  0  0  0  0  0  0  0  0
   21.2688   13.2485   10.6138 C   0  0  0  0  0  0  0  0  0  0  0  0
   22.3157   12.3283   10.0189 C   0  0  0  0  0  0  0  0  0  0  0  0
   21.8106   10.5616   10.5211 Br  0  0  0  0  0  0  0  0  0  0  0  0
   16.0977    9.5882    9.7796 C   0  0  0  0  0  0  0  0  0  0  0  0
   15.1623    8.5599    9.8543 C   0  0  0  0  0  0  0  0  0  0  0  0
   14.6539    8.1768   11.0836 C   0  0  0  0  0  0  0  0  0  0  0  0
   13.5439    6.3861   11.1078 I   0  0  0  0  0  0  0  0  0  0  0  0
   14.9627    8.9501   12.2086 C   0  0  0  0  0  0  0  0  0  0  0  0
   14.3500    8.6026   13.7815 Cl  0  0  0  0  0  0  0  0  0  0  0  0
  1  2  1  0
  2  3  2  0
  3  4  1  0
  4  5  1  0
  5  6  2  0
  5  7  1  0
  7  8  1  0
  8  9  1  0
  9 10  1  0
 10 11  1  0
  3 12  1  0
 12 13  2  0
 13 14  1  0
 14 15  1  0
 14 16  2  0
 16 17  1  0
 16  2  1  0
M  END
>  <HIPPO ID>  (244) 
112170

>  <alias>  (244) 
None

>  <ref_mols>  (244) 
c0692a,c1116a

>  <submitter_email>  (244) 
None

>  <ref_pdb>  (244) 
c0270a

>  <inchikey>  (244) 
RVOMVFLARSPDTA-UHFFFAOYSA-N

>  <generation_date>  (244) 
None

>  <original ID>  (244) 
RVOMVFLARSPDTA-UHFFFAOYSA-N

>  <tags>  (244) 
[]

>  <exports>  (244) 
nan

>  <method>  (244) 
None

>  <submitter_name>  (244) 
None

>  <original SMILES>  (244) 
Nc1c(NC(=O)COCCBr)ccc(I)c1Cl

>  <ref_url>  (244) 
None

$$$$
OLXOPEAEHVSDPF-UHFFFAOYSA-N
     RDKit          3D

 17 17  0  0  0  0  0  0  0  0999 V2000
   14.2642    8.8485   13.9198 C   0  0  0  0  0  0  0  0  0  0  0  0
   14.8453    9.0156   12.5548 C   0  0  0  0  0  0  0  0  0  0  0  0
   14.5148    8.0901   11.5557 C   0  0  0  0  0  0  0  0  0  0  0  0
   14.9306    8.2989   10.2570 C   0  0  0  0  0  0  0  0  0  0  0  0
   15.7479    9.3821    9.9614 C   0  0  0  0  0  0  0  0  0  0  0  0
   16.1899    9.4946    8.6435 N   0  0  0  0  0  0  0  0  0  0  0  0
   16.2427   10.2103   10.9931 C   0  0  0  0  0  0  0  0  0  0  0  0
   17.3792   10.9911   10.6795 N   0  0  0  0  0  0  0  0  0  0  0  0
   17.7901   12.1630   11.2629 C   0  0  0  0  0  0  0  0  0  0  0  0
   17.0522   12.9762   11.8177 O   0  0  0  0  0  0  0  0  0  0  0  0
   19.2862   12.4470   11.1582 C   0  0  0  0  0  0  0  0  0  0  0  0
   20.0621   11.3686   10.6621 O   0  0  0  0  0  0  0  0  0  0  0  0
   21.4483   11.7062   10.4845 C   0  0  0  0  0  0  0  0  0  0  0  0
   22.2711   11.6562   11.7600 C   0  0  0  0  0  0  0  0  0  0  0  0
   22.1972   13.3420   12.7391 Br  0  0  0  0  0  0  0  0  0  0  0  0
   15.7179   10.0891   12.2921 C   0  0  0  0  0  0  0  0  0  0  0  0
   16.0479   11.0263   13.4201 C   0  0  0  0  0  0  0  0  0  0  0  0
  1  2  1  0
  2  3  2  0
  3  4  1  0
  4  5  2  0
  5  6  1  0
  5  7  1  0
  7  8  1  0
  8  9  1  0
  9 10  2  0
  9 11  1  0
 11 12  1  0
 12 13  1  0
 13 14  1  0
 14 15  1  0
  7 16  2  0
 16 17  1  0
 16  2  1  0
M  END
>  <HIPPO ID>  (245) 
112194

>  <alias>  (245) 
None

>  <ref_mols>  (245) 
c0692a,c1116a

>  <submitter_email>  (245) 
None

>  <ref_pdb>  (245) 
c0270a

>  <inchikey>  (245) 
OLXOPEAEHVSDPF-UHFFFAOYSA-N

>  <generation_date>  (245) 
None

>  <original ID>  (245) 
OLXOPEAEHVSDPF-UHFFFAOYSA-N

>  <tags>  (245) 
[]

>  <exports>  (245) 
nan

>  <method>  (245) 
None

>  <submitter_name>  (245) 
None

>  <original SMILES>  (245) 
Cc1ccc(N)c(NC(=O)COCCBr)c1C

>  <ref_url>  (245) 
None

$$$$
RQSKZICQCSRGHS-UHFFFAOYSA-N
     RDKit          3D

 17 17  0  0  0  0  0  0  0  0999 V2000
   16.2065    9.4908    8.5701 N   0  0  0  0  0  0  0  0  0  0  0  0
   15.7388    9.3727    9.8695 C   0  0  0  0  0  0  0  0  0  0  0  0
   14.9082    8.2897   10.1485 C   0  0  0  0  0  0  0  0  0  0  0  0
   14.4868    8.0445   11.4446 C   0  0  0  0  0  0  0  0  0  0  0  0
   13.4881    6.6587   11.6913 Cl  0  0  0  0  0  0  0  0  0  0  0  0
   14.8580    8.9361   12.4524 C   0  0  0  0  0  0  0  0  0  0  0  0
   14.2858    8.8656   14.2395 Br  0  0  0  0  0  0  0  0  0  0  0  0
   15.7083    9.9984   12.1842 C   0  0  0  0  0  0  0  0  0  0  0  0
   16.2172   10.1757   10.9108 C   0  0  0  0  0  0  0  0  0  0  0  0
   17.2848   11.0645   10.6901 N   0  0  0  0  0  0  0  0  0  0  0  0
   17.6451   12.0907   11.5387 C   0  0  0  0  0  0  0  0  0  0  0  0
   16.9118   12.5992   12.3854 O   0  0  0  0  0  0  0  0  0  0  0  0
   19.0524   12.6236   11.3510 C   0  0  0  0  0  0  0  0  0  0  0  0
   19.9317   11.6953   10.7395 O   0  0  0  0  0  0  0  0  0  0  0  0
   21.2532   12.2478   10.7341 C   0  0  0  0  0  0  0  0  0  0  0  0
   22.1951   11.2846   10.0652 C   0  0  0  0  0  0  0  0  0  0  0  0
   23.7444   12.2557    9.4353 Br  0  0  0  0  0  0  0  0  0  0  0  0
  1  2  1  0
  2  3  2  0
  3  4  1  0
  4  5  1  0
  4  6  2  0
  6  7  1  0
  6  8  1  0
  8  9  2  0
  9 10  1  0
 10 11  1  0
 11 12  2  0
 11 13  1  0
 13 14  1  0
 14 15  1  0
 15 16  1  0
 16 17  1  0
  9  2  1  0
M  END
>  <HIPPO ID>  (246) 
112196

>  <alias>  (246) 
None

>  <ref_mols>  (246) 
c0692a,c1116a

>  <submitter_email>  (246) 
None

>  <ref_pdb>  (246) 
c0270a

>  <inchikey>  (246) 
RQSKZICQCSRGHS-UHFFFAOYSA-N

>  <generation_date>  (246) 
None

>  <original ID>  (246) 
RQSKZICQCSRGHS-UHFFFAOYSA-N

>  <tags>  (246) 
[]

>  <exports>  (246) 
nan

>  <method>  (246) 
None

>  <submitter_name>  (246) 
None

>  <original SMILES>  (246) 
Nc1cc(Cl)c(Br)cc1NC(=O)COCCBr

>  <ref_url>  (246) 
None

$$$$
UKALDKAWANRGRX-UHFFFAOYSA-N
     RDKit          3D

 17 17  0  0  0  0  0  0  0  0999 V2000
   16.2766    9.4432    8.5499 N   0  0  0  0  0  0  0  0  0  0  0  0
   15.8199    9.3785    9.8580 C   0  0  0  0  0  0  0  0  0  0  0  0
   14.9767    8.3195   10.1797 C   0  0  0  0  0  0  0  0  0  0  0  0
   14.5517    8.1418   11.4841 C   0  0  0  0  0  0  0  0  0  0  0  0
   13.5103    6.5889   11.8236 Br  0  0  0  0  0  0  0  0  0  0  0  0
   14.9014    9.0994   12.4413 C   0  0  0  0  0  0  0  0  0  0  0  0
   14.3182    9.1349   14.0483 Cl  0  0  0  0  0  0  0  0  0  0  0  0
   15.7794   10.1313   12.1314 C   0  0  0  0  0  0  0  0  0  0  0  0
   16.3236   10.2135   10.8635 C   0  0  0  0  0  0  0  0  0  0  0  0
   17.4557   11.0133   10.6049 N   0  0  0  0  0  0  0  0  0  0  0  0
   17.9196   12.0356   11.4070 C   0  0  0  0  0  0  0  0  0  0  0  0
   17.2306   12.6467   12.2238 O   0  0  0  0  0  0  0  0  0  0  0  0
   19.3867   12.4219   11.1945 C   0  0  0  0  0  0  0  0  0  0  0  0
   20.2097   11.3153   10.8586 O   0  0  0  0  0  0  0  0  0  0  0  0
   21.5723   11.6652   10.5667 C   0  0  0  0  0  0  0  0  0  0  0  0
   22.3678   12.3100   11.6915 C   0  0  0  0  0  0  0  0  0  0  0  0
   22.9489   11.0189   13.0085 Br  0  0  0  0  0  0  0  0  0  0  0  0
  1  2  1  0
  2  3  2  0
  3  4  1  0
  4  5  1  0
  4  6  2  0
  6  7  1  0
  6  8  1  0
  8  9  2  0
  9 10  1  0
 10 11  1  0
 11 12  2  0
 11 13  1  0
 13 14  1  0
 14 15  1  0
 15 16  1  0
 16 17  1  0
  9  2  1  0
M  END
>  <HIPPO ID>  (247) 
112197

>  <alias>  (247) 
None

>  <ref_mols>  (247) 
c0692a,c1116a

>  <submitter_email>  (247) 
None

>  <ref_pdb>  (247) 
c0270a

>  <inchikey>  (247) 
UKALDKAWANRGRX-UHFFFAOYSA-N

>  <generation_date>  (247) 
None

>  <original ID>  (247) 
UKALDKAWANRGRX-UHFFFAOYSA-N

>  <tags>  (247) 
[]

>  <exports>  (247) 
nan

>  <method>  (247) 
None

>  <submitter_name>  (247) 
None

>  <original SMILES>  (247) 
Nc1cc(Br)c(Cl)cc1NC(=O)COCCBr

>  <ref_url>  (247) 
None

$$$$
KCEABFDGOAFJOU-QMMMGPOBSA-N
     RDKit          3D

 17 17  0  0  0  0  0  0  0  0999 V2000
   21.4364   11.3499   10.3293 C   0  0  0  0  0  0  0  0  0  0  0  0
   20.0185   11.3037   10.4787 O   0  0  0  0  0  0  0  0  0  0  0  0
   19.4546   12.4495   11.1278 C   0  0  2  0  0  0  0  0  0  0  0  0
   20.1745   12.9452   12.3828 C   0  0  0  0  0  0  0  0  0  0  0  0
   21.2062   12.4868   12.8465 O   0  0  0  0  0  0  0  0  0  0  0  0
   19.6209   14.0215   12.9687 O   0  0  0  0  0  0  0  0  0  0  0  0
   17.9727   12.1327   11.4107 C   0  0  0  0  0  0  0  0  0  0  0  0
   17.3023   12.7669   12.2231 O   0  0  0  0  0  0  0  0  0  0  0  0
   17.4607   11.0927   10.6515 N   0  0  0  0  0  0  0  0  0  0  0  0
   16.3246   10.3174   10.9569 C   0  0  0  0  0  0  0  0  0  0  0  0
   15.7068   10.3957   12.1895 C   0  0  0  0  0  0  0  0  0  0  0  0
   14.8133    9.4123   12.5460 C   0  0  0  0  0  0  0  0  0  0  0  0
   14.1550    9.5812   13.6912 F   0  0  0  0  0  0  0  0  0  0  0  0
   14.5409    8.3217   11.7277 C   0  0  0  0  0  0  0  0  0  0  0  0
   15.0318    8.3242   10.4367 C   0  0  0  0  0  0  0  0  0  0  0  0
   15.9089    9.3333   10.0412 C   0  0  0  0  0  0  0  0  0  0  0  0
   16.2169    9.4249    8.6970 N   0  0  0  0  0  0  0  0  0  0  0  0
  1  2  1  0
  3  2  1  1
  3  4  1  0
  4  5  2  0
  4  6  1  0
  3  7  1  0
  7  8  2  0
  7  9  1  0
  9 10  1  0
 10 11  2  0
 11 12  1  0
 12 13  1  0
 12 14  2  0
 14 15  1  0
 15 16  2  0
 16 17  1  0
 16 10  1  0
M  END
>  <HIPPO ID>  (248) 
112215

>  <alias>  (248) 
None

>  <ref_mols>  (248) 
c0692a,c1116a

>  <submitter_email>  (248) 
None

>  <ref_pdb>  (248) 
c0270a

>  <inchikey>  (248) 
KCEABFDGOAFJOU-QMMMGPOBSA-N

>  <generation_date>  (248) 
None

>  <original ID>  (248) 
KCEABFDGOAFJOU-QMMMGPOBSA-N

>  <tags>  (248) 
[]

>  <exports>  (248) 
nan

>  <method>  (248) 
None

>  <submitter_name>  (248) 
None

>  <original SMILES>  (248) 
CO[C@H](C(=O)O)C(=O)Nc1cc(F)ccc1N

>  <ref_url>  (248) 
None

$$$$
KCEABFDGOAFJOU-MRVPVSSYSA-N
     RDKit          3D

 17 17  0  0  0  0  0  0  0  0999 V2000
   21.5249   11.3675   10.5021 C   0  0  0  0  0  0  0  0  0  0  0  0
   20.1066   11.4396   10.3722 O   0  0  0  0  0  0  0  0  0  0  0  0
   19.5477   12.4371   11.2232 C   0  0  1  0  0  0  0  0  0  0  0  0
   19.8565   13.8702   10.8076 C   0  0  0  0  0  0  0  0  0  0  0  0
   19.9768   14.3024    9.6705 O   0  0  0  0  0  0  0  0  0  0  0  0
   20.0595   14.6941   11.8517 O   0  0  0  0  0  0  0  0  0  0  0  0
   18.0390   12.1967   11.3765 C   0  0  0  0  0  0  0  0  0  0  0  0
   17.3568   12.8827   12.1372 O   0  0  0  0  0  0  0  0  0  0  0  0
   17.5360   11.1439   10.6262 N   0  0  0  0  0  0  0  0  0  0  0  0
   16.3731   10.3990   10.9055 C   0  0  0  0  0  0  0  0  0  0  0  0
   15.7582   10.4723   12.1403 C   0  0  0  0  0  0  0  0  0  0  0  0
   14.8439    9.5014   12.4826 C   0  0  0  0  0  0  0  0  0  0  0  0
   14.1911    9.6599   13.6323 F   0  0  0  0  0  0  0  0  0  0  0  0
   14.5659    8.4203   11.6544 C   0  0  0  0  0  0  0  0  0  0  0  0
   15.0523    8.4352   10.3623 C   0  0  0  0  0  0  0  0  0  0  0  0
   15.8923    9.4715    9.9615 C   0  0  0  0  0  0  0  0  0  0  0  0
   16.3336    9.4518    8.6442 N   0  0  0  0  0  0  0  0  0  0  0  0
  1  2  1  0
  3  2  1  6
  3  4  1  0
  4  5  2  0
  4  6  1  0
  3  7  1  0
  7  8  2  0
  7  9  1  0
  9 10  1  0
 10 11  2  0
 11 12  1  0
 12 13  1  0
 12 14  2  0
 14 15  1  0
 15 16  2  0
 16 17  1  0
 16 10  1  0
M  END
>  <HIPPO ID>  (249) 
112216

>  <alias>  (249) 
None

>  <ref_mols>  (249) 
c0692a,c1116a

>  <submitter_email>  (249) 
None

>  <ref_pdb>  (249) 
c0270a

>  <inchikey>  (249) 
KCEABFDGOAFJOU-MRVPVSSYSA-N

>  <generation_date>  (249) 
None

>  <original ID>  (249) 
KCEABFDGOAFJOU-MRVPVSSYSA-N

>  <tags>  (249) 
[]

>  <exports>  (249) 
nan

>  <method>  (249) 
None

>  <submitter_name>  (249) 
None

>  <original SMILES>  (249) 
CO[C@@H](C(=O)O)C(=O)Nc1cc(F)ccc1N

>  <ref_url>  (249) 
None

$$$$
MBXINTOLCQOBLA-QMMMGPOBSA-N
     RDKit          3D

 17 17  0  0  0  0  0  0  0  0999 V2000
   21.4774   11.4092   10.4618 C   0  0  0  0  0  0  0  0  0  0  0  0
   20.0803   11.2558   10.6867 O   0  0  0  0  0  0  0  0  0  0  0  0
   19.4177   12.4415   11.1188 C   0  0  2  0  0  0  0  0  0  0  0  0
   19.8672   13.1067   12.4253 C   0  0  0  0  0  0  0  0  0  0  0  0
   19.1485   13.6334   13.2556 O   0  0  0  0  0  0  0  0  0  0  0  0
   21.1956   13.1254   12.6244 O   0  0  0  0  0  0  0  0  0  0  0  0
   17.9099   12.1211   11.2085 C   0  0  0  0  0  0  0  0  0  0  0  0
   17.1076   12.8385   11.8073 O   0  0  0  0  0  0  0  0  0  0  0  0
   17.4990   10.9971   10.5174 N   0  0  0  0  0  0  0  0  0  0  0  0
   16.3571   10.2445   10.8360 C   0  0  0  0  0  0  0  0  0  0  0  0
   15.8759   10.2474   12.1301 C   0  0  0  0  0  0  0  0  0  0  0  0
   15.0076    9.2508   12.5292 C   0  0  0  0  0  0  0  0  0  0  0  0
   14.4435    9.3164   14.4848 I   0  0  0  0  0  0  0  0  0  0  0  0
   14.5921    8.2582   11.6468 C   0  0  0  0  0  0  0  0  0  0  0  0
   14.9618    8.3453   10.3113 C   0  0  0  0  0  0  0  0  0  0  0  0
   15.8035    9.3728    9.8928 C   0  0  0  0  0  0  0  0  0  0  0  0
   16.2098    9.4000    8.5647 N   0  0  0  0  0  0  0  0  0  0  0  0
  1  2  1  0
  3  2  1  1
  3  4  1  0
  4  5  2  0
  4  6  1  0
  3  7  1  0
  7  8  2  0
  7  9  1  0
  9 10  1  0
 10 11  2  0
 11 12  1  0
 12 13  1  0
 12 14  2  0
 14 15  1  0
 15 16  2  0
 16 17  1  0
 16 10  1  0
M  END
>  <HIPPO ID>  (250) 
112222

>  <alias>  (250) 
None

>  <ref_mols>  (250) 
c0692a,c1116a

>  <submitter_email>  (250) 
None

>  <ref_pdb>  (250) 
c0270a

>  <inchikey>  (250) 
MBXINTOLCQOBLA-QMMMGPOBSA-N

>  <generation_date>  (250) 
None

>  <original ID>  (250) 
MBXINTOLCQOBLA-QMMMGPOBSA-N

>  <tags>  (250) 
[]

>  <exports>  (250) 
nan

>  <method>  (250) 
None

>  <submitter_name>  (250) 
None

>  <original SMILES>  (250) 
CO[C@H](C(=O)O)C(=O)Nc1cc(I)ccc1N

>  <ref_url>  (250) 
None

$$$$
MBXINTOLCQOBLA-MRVPVSSYSA-N
     RDKit          3D

 17 17  0  0  0  0  0  0  0  0999 V2000
   21.5001   11.2739   10.5458 C   0  0  0  0  0  0  0  0  0  0  0  0
   20.1017   11.4380   10.3199 O   0  0  0  0  0  0  0  0  0  0  0  0
   19.5269   12.4098   11.1819 C   0  0  1  0  0  0  0  0  0  0  0  0
   19.7844   13.8771   10.8521 C   0  0  0  0  0  0  0  0  0  0  0  0
   19.4017   14.8467   11.4847 O   0  0  0  0  0  0  0  0  0  0  0  0
   20.5501   14.0924    9.7627 O   0  0  0  0  0  0  0  0  0  0  0  0
   18.0292   12.1238   11.3696 C   0  0  0  0  0  0  0  0  0  0  0  0
   17.3576   12.7539   12.1868 O   0  0  0  0  0  0  0  0  0  0  0  0
   17.5190   11.0954   10.5887 N   0  0  0  0  0  0  0  0  0  0  0  0
   16.3816   10.3181   10.8917 C   0  0  0  0  0  0  0  0  0  0  0  0
   15.8886   10.2862   12.1815 C   0  0  0  0  0  0  0  0  0  0  0  0
   15.0197    9.2785   12.5582 C   0  0  0  0  0  0  0  0  0  0  0  0
   14.4364    9.3063   14.5085 I   0  0  0  0  0  0  0  0  0  0  0  0
   14.6129    8.2991   11.6603 C   0  0  0  0  0  0  0  0  0  0  0  0
   14.9902    8.4130   10.3317 C   0  0  0  0  0  0  0  0  0  0  0  0
   15.8301    9.4535    9.9330 C   0  0  0  0  0  0  0  0  0  0  0  0
   16.2288    9.4750    8.6027 N   0  0  0  0  0  0  0  0  0  0  0  0
  1  2  1  0
  3  2  1  6
  3  4  1  0
  4  5  2  0
  4  6  1  0
  3  7  1  0
  7  8  2  0
  7  9  1  0
  9 10  1  0
 10 11  2  0
 11 12  1  0
 12 13  1  0
 12 14  2  0
 14 15  1  0
 15 16  2  0
 16 17  1  0
 16 10  1  0
M  END
>  <HIPPO ID>  (251) 
112223

>  <alias>  (251) 
None

>  <ref_mols>  (251) 
c0692a,c1116a

>  <submitter_email>  (251) 
None

>  <ref_pdb>  (251) 
c0270a

>  <inchikey>  (251) 
MBXINTOLCQOBLA-MRVPVSSYSA-N

>  <generation_date>  (251) 
None

>  <original ID>  (251) 
MBXINTOLCQOBLA-MRVPVSSYSA-N

>  <tags>  (251) 
[]

>  <exports>  (251) 
nan

>  <method>  (251) 
None

>  <submitter_name>  (251) 
None

>  <original SMILES>  (251) 
CO[C@@H](C(=O)O)C(=O)Nc1cc(I)ccc1N

>  <ref_url>  (251) 
None

$$$$
MCSKETWSWBRYAN-UHFFFAOYSA-N
     RDKit          3D

 17 17  0  0  0  0  0  0  0  0999 V2000
   15.8887   11.0092   13.6306 C   0  0  0  0  0  0  0  0  0  0  0  0
   15.6490   10.1529   12.4269 C   0  0  0  0  0  0  0  0  0  0  0  0
   14.7348    9.1231   12.6063 C   0  0  0  0  0  0  0  0  0  0  0  0
   14.0394    9.1155   13.7438 F   0  0  0  0  0  0  0  0  0  0  0  0
   14.4725    8.1521   11.6523 C   0  0  0  0  0  0  0  0  0  0  0  0
   15.0193    8.3038   10.4015 C   0  0  0  0  0  0  0  0  0  0  0  0
   15.8758    9.3781   10.1451 C   0  0  0  0  0  0  0  0  0  0  0  0
   16.4471    9.4235    8.8941 N   0  0  0  0  0  0  0  0  0  0  0  0
   16.2661   10.2626   11.1776 C   0  0  0  0  0  0  0  0  0  0  0  0
   17.3657   11.1319   10.9448 N   0  0  0  0  0  0  0  0  0  0  0  0
   17.4828   12.3937   11.4803 C   0  0  0  0  0  0  0  0  0  0  0  0
   16.5391   13.0483   11.9254 O   0  0  0  0  0  0  0  0  0  0  0  0
   18.8863   12.9798   11.5715 C   0  0  0  0  0  0  0  0  0  0  0  0
   19.7865   12.7223   10.5204 O   0  0  0  0  0  0  0  0  0  0  0  0
   21.0648   13.3156   10.8269 C   0  0  0  0  0  0  0  0  0  0  0  0
   22.1799   12.6891   10.0233 C   0  0  0  0  0  0  0  0  0  0  0  0
   21.9454   10.7973   10.2199 Br  0  0  0  0  0  0  0  0  0  0  0  0
  1  2  1  0
  2  3  2  0
  3  4  1  0
  3  5  1  0
  5  6  2  0
  6  7  1  0
  7  8  1  0
  7  9  2  0
  9 10  1  0
 10 11  1  0
 11 12  2  0
 11 13  1  0
 13 14  1  0
 14 15  1  0
 15 16  1  0
 16 17  1  0
  9  2  1  0
M  END
>  <HIPPO ID>  (252) 
112264

>  <alias>  (252) 
None

>  <ref_mols>  (252) 
c0692a,c1116a

>  <submitter_email>  (252) 
None

>  <ref_pdb>  (252) 
c0270a

>  <inchikey>  (252) 
MCSKETWSWBRYAN-UHFFFAOYSA-N

>  <generation_date>  (252) 
None

>  <original ID>  (252) 
MCSKETWSWBRYAN-UHFFFAOYSA-N

>  <tags>  (252) 
[]

>  <exports>  (252) 
nan

>  <method>  (252) 
None

>  <submitter_name>  (252) 
None

>  <original SMILES>  (252) 
Cc1c(F)ccc(N)c1NC(=O)COCCBr

>  <ref_url>  (252) 
None

$$$$
UBJHDQODXPUGCV-UHFFFAOYSA-N
     RDKit          3D

 17 17  0  0  0  0  0  0  0  0999 V2000
   14.3841    9.0202   13.6074 C   0  0  0  0  0  0  0  0  0  0  0  0
   14.9147    9.2340   12.2307 C   0  0  0  0  0  0  0  0  0  0  0  0
   14.5349    8.3996   11.1694 C   0  0  0  0  0  0  0  0  0  0  0  0
   13.6167    7.4371   11.3474 F   0  0  0  0  0  0  0  0  0  0  0  0
   15.0587    8.5659    9.9078 C   0  0  0  0  0  0  0  0  0  0  0  0
   16.0808    9.4842    9.7333 C   0  0  0  0  0  0  0  0  0  0  0  0
   16.4984   10.3141   10.7859 C   0  0  0  0  0  0  0  0  0  0  0  0
   17.6952   11.0263   10.5773 N   0  0  0  0  0  0  0  0  0  0  0  0
   18.1409   12.1461   11.2393 C   0  0  0  0  0  0  0  0  0  0  0  0
   17.4207   12.9317   11.8598 O   0  0  0  0  0  0  0  0  0  0  0  0
   19.6404   12.4083   11.1089 C   0  0  0  0  0  0  0  0  0  0  0  0
   20.3569   11.2346   10.7619 O   0  0  0  0  0  0  0  0  0  0  0  0
   21.7318   11.4501   10.4289 C   0  0  0  0  0  0  0  0  0  0  0  0
   22.6019   12.0717   11.5022 C   0  0  0  0  0  0  0  0  0  0  0  0
   22.9676   10.8414   12.9425 Br  0  0  0  0  0  0  0  0  0  0  0  0
   15.8150   10.2867   12.0149 C   0  0  0  0  0  0  0  0  0  0  0  0
   16.2046   11.0704   13.1285 N   0  0  0  0  0  0  0  0  0  0  0  0
  1  2  1  0
  2  3  2  0
  3  4  1  0
  3  5  1  0
  5  6  2  0
  6  7  1  0
  7  8  1  0
  8  9  1  0
  9 10  2  0
  9 11  1  0
 11 12  1  0
 12 13  1  0
 13 14  1  0
 14 15  1  0
  7 16  2  0
 16 17  1  0
 16  2  1  0
M  END
>  <HIPPO ID>  (253) 
112265

>  <alias>  (253) 
None

>  <ref_mols>  (253) 
c0692a,c1116a

>  <submitter_email>  (253) 
None

>  <ref_pdb>  (253) 
c0270a

>  <inchikey>  (253) 
UBJHDQODXPUGCV-UHFFFAOYSA-N

>  <generation_date>  (253) 
None

>  <original ID>  (253) 
UBJHDQODXPUGCV-UHFFFAOYSA-N

>  <tags>  (253) 
[]

>  <exports>  (253) 
nan

>  <method>  (253) 
None

>  <submitter_name>  (253) 
None

>  <original SMILES>  (253) 
Cc1c(F)ccc(NC(=O)COCCBr)c1N

>  <ref_url>  (253) 
None

$$$$
WVENFXRCDZZLSR-UHFFFAOYSA-N
     RDKit          3D

 17 17  0  0  0  0  0  0  0  0999 V2000
   16.3058    9.4286    8.5533 N   0  0  0  0  0  0  0  0  0  0  0  0
   15.8065    9.3666    9.8450 C   0  0  0  0  0  0  0  0  0  0  0  0
   14.9229    8.3342   10.1333 C   0  0  0  0  0  0  0  0  0  0  0  0
   14.4209    8.2255   11.4072 C   0  0  0  0  0  0  0  0  0  0  0  0
   13.5077    7.2764   11.6573 F   0  0  0  0  0  0  0  0  0  0  0  0
   14.7643    9.1725   12.3686 C   0  0  0  0  0  0  0  0  0  0  0  0
   14.1550    9.2226   13.5518 F   0  0  0  0  0  0  0  0  0  0  0  0
   15.6911   10.1568   12.1164 C   0  0  0  0  0  0  0  0  0  0  0  0
   16.2744   10.2136   10.8656 C   0  0  0  0  0  0  0  0  0  0  0  0
   17.3892   11.0304   10.6260 N   0  0  0  0  0  0  0  0  0  0  0  0
   17.8142   12.0659   11.4282 C   0  0  0  0  0  0  0  0  0  0  0  0
   17.1235   12.6506   12.2606 O   0  0  0  0  0  0  0  0  0  0  0  0
   19.2671   12.4653   11.2220 C   0  0  0  0  0  0  0  0  0  0  0  0
   19.9798   11.5508   10.4065 O   0  0  0  0  0  0  0  0  0  0  0  0
   21.3781   11.4491   10.7157 C   0  0  0  0  0  0  0  0  0  0  0  0
   22.1523   12.7562   10.6065 C   0  0  0  0  0  0  0  0  0  0  0  0
   22.2260   13.6703   12.3369 Br  0  0  0  0  0  0  0  0  0  0  0  0
  1  2  1  0
  2  3  2  0
  3  4  1  0
  4  5  1  0
  4  6  2  0
  6  7  1  0
  6  8  1  0
  8  9  2  0
  9 10  1  0
 10 11  1  0
 11 12  2  0
 11 13  1  0
 13 14  1  0
 14 15  1  0
 15 16  1  0
 16 17  1  0
  9  2  1  0
M  END
>  <HIPPO ID>  (254) 
112282

>  <alias>  (254) 
None

>  <ref_mols>  (254) 
c0692a,c1116a

>  <submitter_email>  (254) 
None

>  <ref_pdb>  (254) 
c0270a

>  <inchikey>  (254) 
WVENFXRCDZZLSR-UHFFFAOYSA-N

>  <generation_date>  (254) 
None

>  <original ID>  (254) 
WVENFXRCDZZLSR-UHFFFAOYSA-N

>  <tags>  (254) 
[]

>  <exports>  (254) 
nan

>  <method>  (254) 
None

>  <submitter_name>  (254) 
None

>  <original SMILES>  (254) 
Nc1cc(F)c(F)cc1NC(=O)COCCBr

>  <ref_url>  (254) 
None

$$$$
LXDSQRWWBBMASR-UHFFFAOYSA-N
     RDKit          3D

 17 17  0  0  0  0  0  0  0  0999 V2000
   16.2681    9.4317    8.5844 N   0  0  0  0  0  0  0  0  0  0  0  0
   15.8177    9.3639    9.8965 C   0  0  0  0  0  0  0  0  0  0  0  0
   14.9429    8.3243   10.2150 C   0  0  0  0  0  0  0  0  0  0  0  0
   14.4679    8.1998   11.5059 C   0  0  0  0  0  0  0  0  0  0  0  0
   14.8223    9.1645   12.4393 C   0  0  0  0  0  0  0  0  0  0  0  0
   14.2160    9.2134   13.6239 F   0  0  0  0  0  0  0  0  0  0  0  0
   15.7728   10.1219   12.1705 C   0  0  0  0  0  0  0  0  0  0  0  0
   16.2148   10.8510   13.2019 F   0  0  0  0  0  0  0  0  0  0  0  0
   16.3344   10.1948   10.9054 C   0  0  0  0  0  0  0  0  0  0  0  0
   17.4752   10.9771   10.6360 N   0  0  0  0  0  0  0  0  0  0  0  0
   17.8505   12.0993   11.3397 C   0  0  0  0  0  0  0  0  0  0  0  0
   17.0899   12.7973   12.0076 O   0  0  0  0  0  0  0  0  0  0  0  0
   19.3174   12.4915   11.1899 C   0  0  0  0  0  0  0  0  0  0  0  0
   20.1263   11.5084   10.5525 O   0  0  0  0  0  0  0  0  0  0  0  0
   21.5131   11.6256   10.9102 C   0  0  0  0  0  0  0  0  0  0  0  0
   22.3867   12.2994    9.8620 C   0  0  0  0  0  0  0  0  0  0  0  0
   21.8713   14.1578    9.5428 Br  0  0  0  0  0  0  0  0  0  0  0  0
  1  2  1  0
  2  3  2  0
  3  4  1  0
  4  5  2  0
  5  6  1  0
  5  7  1  0
  7  8  1  0
  7  9  2  0
  9 10  1  0
 10 11  1  0
 11 12  2  0
 11 13  1  0
 13 14  1  0
 14 15  1  0
 15 16  1  0
 16 17  1  0
  9  2  1  0
M  END
>  <HIPPO ID>  (255) 
112294

>  <alias>  (255) 
None

>  <ref_mols>  (255) 
c0692a,c1116a

>  <submitter_email>  (255) 
None

>  <ref_pdb>  (255) 
c0270a

>  <inchikey>  (255) 
LXDSQRWWBBMASR-UHFFFAOYSA-N

>  <generation_date>  (255) 
None

>  <original ID>  (255) 
LXDSQRWWBBMASR-UHFFFAOYSA-N

>  <tags>  (255) 
[]

>  <exports>  (255) 
nan

>  <method>  (255) 
None

>  <submitter_name>  (255) 
None

>  <original SMILES>  (255) 
Nc1ccc(F)c(F)c1NC(=O)COCCBr

>  <ref_url>  (255) 
None

$$$$
MVQJNIHLQFSFSS-UHFFFAOYSA-N
     RDKit          3D

 18 18  0  0  0  0  0  0  0  0999 V2000
   21.9512   13.3633   10.4968 C   0  0  0  0  0  0  0  0  0  0  0  0
   21.5510   11.9827   11.0113 C   0  0  0  0  0  0  0  0  0  0  0  0
   22.1319   11.8083   12.4093 C   0  0  0  0  0  0  0  0  0  0  0  0
   22.1561   10.9269   10.1194 C   0  0  0  0  0  0  0  0  0  0  0  0
   20.1323   11.6664   11.0294 O   0  0  0  0  0  0  0  0  0  0  0  0
   19.2174   12.6391   11.1555 C   0  0  0  0  0  0  0  0  0  0  0  0
   19.3763   13.8416   11.0870 O   0  0  0  0  0  0  0  0  0  0  0  0
   17.8558   12.0463   11.4931 C   0  0  0  0  0  0  0  0  0  0  0  0
   17.2981   12.4876   12.4921 O   0  0  0  0  0  0  0  0  0  0  0  0
   17.3762   11.0700   10.6342 N   0  0  0  0  0  0  0  0  0  0  0  0
   16.2940   10.2111   10.9212 C   0  0  0  0  0  0  0  0  0  0  0  0
   15.8107   10.0928   12.2114 C   0  0  0  0  0  0  0  0  0  0  0  0
   14.9565    9.0577   12.5412 C   0  0  0  0  0  0  0  0  0  0  0  0
   14.3702    8.9980   14.4951 I   0  0  0  0  0  0  0  0  0  0  0  0
   14.5537    8.1279   11.5927 C   0  0  0  0  0  0  0  0  0  0  0  0
   14.9376    8.3128   10.2718 C   0  0  0  0  0  0  0  0  0  0  0  0
   15.7667    9.3813    9.9218 C   0  0  0  0  0  0  0  0  0  0  0  0
   16.1898    9.4591    8.6019 N   0  0  0  0  0  0  0  0  0  0  0  0
  1  2  1  0
  2  3  1  0
  2  4  1  0
  2  5  1  0
  5  6  1  0
  6  7  2  0
  6  8  1  0
  8  9  2  0
  8 10  1  0
 10 11  1  0
 11 12  2  0
 12 13  1  0
 13 14  1  0
 13 15  2  0
 15 16  1  0
 16 17  2  0
 17 18  1  0
 17 11  1  0
M  END
>  <HIPPO ID>  (256) 
112699

>  <alias>  (256) 
None

>  <ref_mols>  (256) 
c0692a,c1116a

>  <submitter_email>  (256) 
None

>  <ref_pdb>  (256) 
c0270a

>  <inchikey>  (256) 
MVQJNIHLQFSFSS-UHFFFAOYSA-N

>  <generation_date>  (256) 
None

>  <original ID>  (256) 
MVQJNIHLQFSFSS-UHFFFAOYSA-N

>  <tags>  (256) 
[]

>  <exports>  (256) 
nan

>  <method>  (256) 
None

>  <submitter_name>  (256) 
None

>  <original SMILES>  (256) 
CC(C)(C)OC(=O)C(=O)Nc1cc(I)ccc1N

>  <ref_url>  (256) 
None

$$$$
OMXYIVNPWCKNQT-UHFFFAOYSA-N
     RDKit          3D

 18 18  0  0  0  0  0  0  0  0999 V2000
   21.9552   12.5780   12.0613 C   0  0  0  0  0  0  0  0  0  0  0  0
   21.4497   12.3116   10.6459 C   0  0  0  0  0  0  0  0  0  0  0  0
   22.1767   11.0988   10.0992 C   0  0  0  0  0  0  0  0  0  0  0  0
   21.7457   13.5307    9.7513 C   0  0  0  0  0  0  0  0  0  0  0  0
   20.0550   11.8945   10.6790 O   0  0  0  0  0  0  0  0  0  0  0  0
   19.1602   12.7768   11.1508 C   0  0  0  0  0  0  0  0  0  0  0  0
   19.3354   13.9669   11.3377 O   0  0  0  0  0  0  0  0  0  0  0  0
   17.8422   12.0976   11.5242 C   0  0  0  0  0  0  0  0  0  0  0  0
   17.3009   12.4856   12.5535 O   0  0  0  0  0  0  0  0  0  0  0  0
   17.3766   11.1162   10.6633 N   0  0  0  0  0  0  0  0  0  0  0  0
   16.2865   10.2584   10.9291 C   0  0  0  0  0  0  0  0  0  0  0  0
   15.6956   10.2034   12.1778 C   0  0  0  0  0  0  0  0  0  0  0  0
   14.8039    9.1946   12.4577 C   0  0  0  0  0  0  0  0  0  0  0  0
   14.1796    9.2559   13.6315 F   0  0  0  0  0  0  0  0  0  0  0  0
   14.5046    8.1955   11.5437 C   0  0  0  0  0  0  0  0  0  0  0  0
   14.9873    8.3190   10.2550 C   0  0  0  0  0  0  0  0  0  0  0  0
   15.8211    9.3893    9.9257 C   0  0  0  0  0  0  0  0  0  0  0  0
   16.2849    9.4478    8.6190 N   0  0  0  0  0  0  0  0  0  0  0  0
  1  2  1  0
  2  3  1  0
  2  4  1  0
  2  5  1  0
  5  6  1  0
  6  7  2  0
  6  8  1  0
  8  9  2  0
  8 10  1  0
 10 11  1  0
 11 12  2  0
 12 13  1  0
 13 14  1  0
 13 15  2  0
 15 16  1  0
 16 17  2  0
 17 18  1  0
 17 11  1  0
M  END
>  <HIPPO ID>  (257) 
112736

>  <alias>  (257) 
None

>  <ref_mols>  (257) 
c0692a,c1116a

>  <submitter_email>  (257) 
None

>  <ref_pdb>  (257) 
c0270a

>  <inchikey>  (257) 
OMXYIVNPWCKNQT-UHFFFAOYSA-N

>  <generation_date>  (257) 
None

>  <original ID>  (257) 
OMXYIVNPWCKNQT-UHFFFAOYSA-N

>  <tags>  (257) 
[]

>  <exports>  (257) 
nan

>  <method>  (257) 
None

>  <submitter_name>  (257) 
None

>  <original SMILES>  (257) 
CC(C)(C)OC(=O)C(=O)Nc1cc(F)ccc1N

>  <ref_url>  (257) 
None

$$$$
UJMHFQWVRGRLDU-GFCCVEGCSA-N
     RDKit          3D

 18 19  0  0  0  0  0  0  0  0999 V2000
   22.0033   11.7041   10.5320 N   0  0  0  0  0  0  0  0  0  0  0  0
   20.5857   11.3945   10.7325 C   0  0  0  0  0  0  0  0  0  0  0  0
   19.7103   12.6200   11.0906 C   0  0  1  0  0  0  0  0  0  0  0  0
   18.1902   12.2433   11.2218 C   0  0  0  0  0  0  0  0  0  0  0  0
   17.4161   12.9733   11.8548 O   0  0  0  0  0  0  0  0  0  0  0  0
   17.7459   11.1157   10.5575 N   0  0  0  0  0  0  0  0  0  0  0  0
   16.5754   10.3681   10.8376 C   0  0  0  0  0  0  0  0  0  0  0  0
   16.1126    9.5162    9.8177 C   0  0  0  0  0  0  0  0  0  0  0  0
   15.1223    8.5669   10.0537 C   0  0  0  0  0  0  0  0  0  0  0  0
   14.6185    8.4267   11.3336 C   0  0  0  0  0  0  0  0  0  0  0  0
   15.0135    9.3242   12.3263 C   0  0  0  0  0  0  0  0  0  0  0  0
   14.3210    9.2414   13.8983 Cl  0  0  0  0  0  0  0  0  0  0  0  0
   15.9552   10.3348   12.0957 C   0  0  0  0  0  0  0  0  0  0  0  0
   16.4277   11.0778   13.2124 N   0  0  0  0  0  0  0  0  0  0  0  0
   20.1614   13.2635   12.4121 C   0  0  0  0  0  0  0  0  0  0  0  0
   20.0434   14.7424   12.1631 C   0  0  0  0  0  0  0  0  0  0  0  0
   20.4354   14.8215   10.7151 C   0  0  0  0  0  0  0  0  0  0  0  0
   19.8916   13.6499   10.0881 O   0  0  0  0  0  0  0  0  0  0  0  0
  1  2  1  0
  3  2  1  6
  3  4  1  0
  4  5  2  0
  4  6  1  0
  6  7  1  0
  7  8  2  0
  8  9  1  0
  9 10  2  0
 10 11  1  0
 11 12  1  0
 11 13  2  0
 13 14  1  0
  3 15  1  0
 15 16  1  0
 16 17  1  0
 17 18  1  0
 18  3  1  0
 13  7  1  0
M  END
>  <HIPPO ID>  (258) 
112956

>  <alias>  (258) 
None

>  <ref_mols>  (258) 
c0692a,c1116a

>  <submitter_email>  (258) 
None

>  <ref_pdb>  (258) 
c0270a

>  <inchikey>  (258) 
UJMHFQWVRGRLDU-GFCCVEGCSA-N

>  <generation_date>  (258) 
None

>  <original ID>  (258) 
UJMHFQWVRGRLDU-GFCCVEGCSA-N

>  <tags>  (258) 
[]

>  <exports>  (258) 
nan

>  <method>  (258) 
None

>  <submitter_name>  (258) 
None

>  <original SMILES>  (258) 
NC[C@@]1(C(=O)Nc2cccc(Cl)c2N)CCCO1

>  <ref_url>  (258) 
None

$$$$
ARBRSTMDRKEVRO-LBPRGKRZSA-N
     RDKit          3D

 18 19  0  0  0  0  0  0  0  0999 V2000
   21.9133   11.3682   10.8198 N   0  0  0  0  0  0  0  0  0  0  0  0
   20.4603   11.3087   10.7506 C   0  0  0  0  0  0  0  0  0  0  0  0
   19.7076   12.5542   11.2370 C   0  0  2  0  0  0  0  0  0  0  0  0
   18.1482   12.3337   11.2714 C   0  0  0  0  0  0  0  0  0  0  0  0
   17.4228   13.1329   11.8736 O   0  0  0  0  0  0  0  0  0  0  0  0
   17.6269   11.2159   10.6332 N   0  0  0  0  0  0  0  0  0  0  0  0
   16.4297   10.5431   10.9855 C   0  0  0  0  0  0  0  0  0  0  0  0
   15.7917   10.7689   12.1902 C   0  0  0  0  0  0  0  0  0  0  0  0
   14.8655    9.8463   12.6290 C   0  0  0  0  0  0  0  0  0  0  0  0
   14.1809   10.1311   13.7346 F   0  0  0  0  0  0  0  0  0  0  0  0
   14.6210    8.6649   11.9422 C   0  0  0  0  0  0  0  0  0  0  0  0
   15.1115    8.5313   10.6614 C   0  0  0  0  0  0  0  0  0  0  0  0
   15.9490    9.5187   10.1463 C   0  0  0  0  0  0  0  0  0  0  0  0
   16.4449    9.3249    8.8715 N   0  0  0  0  0  0  0  0  0  0  0  0
   20.1825   13.8500   10.5766 C   0  0  0  0  0  0  0  0  0  0  0  0
   21.0025   14.5727   11.6191 C   0  0  0  0  0  0  0  0  0  0  0  0
   20.3727   14.0948   12.8931 C   0  0  0  0  0  0  0  0  0  0  0  0
   20.0695   12.7267   12.6361 O   0  0  0  0  0  0  0  0  0  0  0  0
  1  2  1  0
  3  2  1  6
  3  4  1  0
  4  5  2  0
  4  6  1  0
  6  7  1  0
  7  8  2  0
  8  9  1  0
  9 10  1  0
  9 11  2  0
 11 12  1  0
 12 13  2  0
 13 14  1  0
  3 15  1  0
 15 16  1  0
 16 17  1  0
 17 18  1  0
 18  3  1  0
 13  7  1  0
M  END
>  <HIPPO ID>  (259) 
112966

>  <alias>  (259) 
None

>  <ref_mols>  (259) 
c0692a,c1116a

>  <submitter_email>  (259) 
None

>  <ref_pdb>  (259) 
c0270a

>  <inchikey>  (259) 
ARBRSTMDRKEVRO-LBPRGKRZSA-N

>  <generation_date>  (259) 
None

>  <original ID>  (259) 
ARBRSTMDRKEVRO-LBPRGKRZSA-N

>  <tags>  (259) 
[]

>  <exports>  (259) 
nan

>  <method>  (259) 
None

>  <submitter_name>  (259) 
None

>  <original SMILES>  (259) 
NC[C@]1(C(=O)Nc2cc(F)ccc2N)CCCO1

>  <ref_url>  (259) 
None

$$$$
ARBRSTMDRKEVRO-GFCCVEGCSA-N
     RDKit          3D

 18 19  0  0  0  0  0  0  0  0999 V2000
   21.8980   11.6247   10.4911 N   0  0  0  0  0  0  0  0  0  0  0  0
   20.4783   11.3631   10.7215 C   0  0  0  0  0  0  0  0  0  0  0  0
   19.6431   12.5889   11.1781 C   0  0  1  0  0  0  0  0  0  0  0  0
   18.1265   12.1929   11.4052 C   0  0  0  0  0  0  0  0  0  0  0  0
   17.4449   12.7927   12.2420 O   0  0  0  0  0  0  0  0  0  0  0  0
   17.5862   11.1849   10.6132 N   0  0  0  0  0  0  0  0  0  0  0  0
   16.4290   10.4176   10.9138 C   0  0  0  0  0  0  0  0  0  0  0  0
   15.8269   10.4651   12.1583 C   0  0  0  0  0  0  0  0  0  0  0  0
   14.8873    9.5114   12.4890 C   0  0  0  0  0  0  0  0  0  0  0  0
   14.2299    9.6733   13.6355 F   0  0  0  0  0  0  0  0  0  0  0  0
   14.5865    8.4475   11.6503 C   0  0  0  0  0  0  0  0  0  0  0  0
   15.0695    8.4730   10.3590 C   0  0  0  0  0  0  0  0  0  0  0  0
   15.9210    9.5054    9.9645 C   0  0  0  0  0  0  0  0  0  0  0  0
   16.3415    9.4787    8.6414 N   0  0  0  0  0  0  0  0  0  0  0  0
   20.2306   13.1995   12.4677 C   0  0  0  0  0  0  0  0  0  0  0  0
   21.0955   14.3392   12.0046 C   0  0  0  0  0  0  0  0  0  0  0  0
   20.3673   14.7948   10.7751 C   0  0  0  0  0  0  0  0  0  0  0  0
   19.7654   13.6321   10.1847 O   0  0  0  0  0  0  0  0  0  0  0  0
  1  2  1  0
  3  2  1  6
  3  4  1  0
  4  5  2  0
  4  6  1  0
  6  7  1  0
  7  8  2  0
  8  9  1  0
  9 10  1  0
  9 11  2  0
 11 12  1  0
 12 13  2  0
 13 14  1  0
  3 15  1  0
 15 16  1  0
 16 17  1  0
 17 18  1  0
 18  3  1  0
 13  7  1  0
M  END
>  <HIPPO ID>  (260) 
112967

>  <alias>  (260) 
None

>  <ref_mols>  (260) 
c0692a,c1116a

>  <submitter_email>  (260) 
None

>  <ref_pdb>  (260) 
c0270a

>  <inchikey>  (260) 
ARBRSTMDRKEVRO-GFCCVEGCSA-N

>  <generation_date>  (260) 
None

>  <original ID>  (260) 
ARBRSTMDRKEVRO-GFCCVEGCSA-N

>  <tags>  (260) 
[]

>  <exports>  (260) 
nan

>  <method>  (260) 
None

>  <submitter_name>  (260) 
None

>  <original SMILES>  (260) 
NC[C@@]1(C(=O)Nc2cc(F)ccc2N)CCCO1

>  <ref_url>  (260) 
None

$$$$
WYIPMMIPXFMIQE-QMMMGPOBSA-N
     RDKit          3D

 18 18  0  0  0  0  0  0  0  0999 V2000
   21.4895   11.2841   10.6800 C   0  0  0  0  0  0  0  0  0  0  0  0
   20.0772   11.1903   10.7645 O   0  0  0  0  0  0  0  0  0  0  0  0
   19.3882   12.3970   11.0615 C   0  0  2  0  0  0  0  0  0  0  0  0
   19.8392   13.2544   12.2462 C   0  0  0  0  0  0  0  0  0  0  0  0
   19.1843   13.4188   13.2591 O   0  0  0  0  0  0  0  0  0  0  0  0
   21.0142   13.9017   12.0787 O   0  0  0  0  0  0  0  0  0  0  0  0
   17.8828   12.0535   11.2084 C   0  0  0  0  0  0  0  0  0  0  0  0
   17.0786   12.7614   11.8131 O   0  0  0  0  0  0  0  0  0  0  0  0
   17.4768   10.9271   10.5200 N   0  0  0  0  0  0  0  0  0  0  0  0
   16.3241   10.1769   10.8043 C   0  0  0  0  0  0  0  0  0  0  0  0
   15.7921   10.1436   12.0782 C   0  0  0  0  0  0  0  0  0  0  0  0
   14.9085    9.1276   12.4182 C   0  0  0  0  0  0  0  0  0  0  0  0
   14.3381    9.2034   14.0282 Cl  0  0  0  0  0  0  0  0  0  0  0  0
   14.5473    8.1477   11.4845 C   0  0  0  0  0  0  0  0  0  0  0  0
   13.5123    6.6008   11.8712 Br  0  0  0  0  0  0  0  0  0  0  0  0
   14.9569    8.2914   10.1697 C   0  0  0  0  0  0  0  0  0  0  0  0
   15.8024    9.3352    9.8194 C   0  0  0  0  0  0  0  0  0  0  0  0
   16.2525    9.3986    8.5096 N   0  0  0  0  0  0  0  0  0  0  0  0
  1  2  1  0
  3  2  1  1
  3  4  1  0
  4  5  2  0
  4  6  1  0
  3  7  1  0
  7  8  2  0
  7  9  1  0
  9 10  1  0
 10 11  2  0
 11 12  1  0
 12 13  1  0
 12 14  2  0
 14 15  1  0
 14 16  1  0
 16 17  2  0
 17 18  1  0
 17 10  1  0
M  END
>  <HIPPO ID>  (261) 
113036

>  <alias>  (261) 
None

>  <ref_mols>  (261) 
c0692a,c1116a

>  <submitter_email>  (261) 
None

>  <ref_pdb>  (261) 
c0270a

>  <inchikey>  (261) 
WYIPMMIPXFMIQE-QMMMGPOBSA-N

>  <generation_date>  (261) 
None

>  <original ID>  (261) 
WYIPMMIPXFMIQE-QMMMGPOBSA-N

>  <tags>  (261) 
[]

>  <exports>  (261) 
nan

>  <method>  (261) 
None

>  <submitter_name>  (261) 
None

>  <original SMILES>  (261) 
CO[C@H](C(=O)O)C(=O)Nc1cc(Cl)c(Br)cc1N

>  <ref_url>  (261) 
None

$$$$
WYIPMMIPXFMIQE-MRVPVSSYSA-N
     RDKit          3D

 18 18  0  0  0  0  0  0  0  0999 V2000
   21.4544   11.2603   10.5323 C   0  0  0  0  0  0  0  0  0  0  0  0
   20.0527   11.4257   10.3214 O   0  0  0  0  0  0  0  0  0  0  0  0
   19.4830   12.3784   11.2098 C   0  0  1  0  0  0  0  0  0  0  0  0
   19.7267   13.8507   10.8981 C   0  0  0  0  0  0  0  0  0  0  0  0
   19.3373   14.8086   11.5441 O   0  0  0  0  0  0  0  0  0  0  0  0
   20.4974   14.0853    9.8152 O   0  0  0  0  0  0  0  0  0  0  0  0
   17.9910   12.0619   11.4300 C   0  0  0  0  0  0  0  0  0  0  0  0
   17.3376   12.6309   12.3034 O   0  0  0  0  0  0  0  0  0  0  0  0
   17.4740   11.0662   10.6116 N   0  0  0  0  0  0  0  0  0  0  0  0
   16.3401   10.2656   10.8728 C   0  0  0  0  0  0  0  0  0  0  0  0
   15.7895   10.1873   12.1382 C   0  0  0  0  0  0  0  0  0  0  0  0
   14.9140    9.1523   12.4515 C   0  0  0  0  0  0  0  0  0  0  0  0
   14.3226    9.1950   14.0552 Cl  0  0  0  0  0  0  0  0  0  0  0  0
   14.5736    8.1846   11.5016 C   0  0  0  0  0  0  0  0  0  0  0  0
   13.5471    6.6233   11.8480 Br  0  0  0  0  0  0  0  0  0  0  0  0
   14.9995    8.3579   10.1982 C   0  0  0  0  0  0  0  0  0  0  0  0
   15.8373    9.4208    9.8721 C   0  0  0  0  0  0  0  0  0  0  0  0
   16.2860    9.4723    8.5607 N   0  0  0  0  0  0  0  0  0  0  0  0
  1  2  1  0
  3  2  1  6
  3  4  1  0
  4  5  2  0
  4  6  1  0
  3  7  1  0
  7  8  2  0
  7  9  1  0
  9 10  1  0
 10 11  2  0
 11 12  1  0
 12 13  1  0
 12 14  2  0
 14 15  1  0
 14 16  1  0
 16 17  2  0
 17 18  1  0
 17 10  1  0
M  END
>  <HIPPO ID>  (262) 
113037

>  <alias>  (262) 
None

>  <ref_mols>  (262) 
c0692a,c1116a

>  <submitter_email>  (262) 
None

>  <ref_pdb>  (262) 
c0270a

>  <inchikey>  (262) 
WYIPMMIPXFMIQE-MRVPVSSYSA-N

>  <generation_date>  (262) 
None

>  <original ID>  (262) 
WYIPMMIPXFMIQE-MRVPVSSYSA-N

>  <tags>  (262) 
[]

>  <exports>  (262) 
nan

>  <method>  (262) 
None

>  <submitter_name>  (262) 
None

>  <original SMILES>  (262) 
CO[C@@H](C(=O)O)C(=O)Nc1cc(Cl)c(Br)cc1N

>  <ref_url>  (262) 
None

$$$$
XTGBLXWAXRGXJV-QMMMGPOBSA-N
     RDKit          3D

 18 18  0  0  0  0  0  0  0  0999 V2000
   21.4567   11.3516   10.3187 C   0  0  0  0  0  0  0  0  0  0  0  0
   20.0368   11.2776   10.4415 O   0  0  0  0  0  0  0  0  0  0  0  0
   19.4440   12.4033   11.0972 C   0  0  2  0  0  0  0  0  0  0  0  0
   20.1588   12.9223   12.3417 C   0  0  0  0  0  0  0  0  0  0  0  0
   21.1223   12.4052   12.8806 O   0  0  0  0  0  0  0  0  0  0  0  0
   19.6886   14.0878   12.8196 O   0  0  0  0  0  0  0  0  0  0  0  0
   17.9822   12.0325   11.4081 C   0  0  0  0  0  0  0  0  0  0  0  0
   17.3310   12.5959   12.2864 O   0  0  0  0  0  0  0  0  0  0  0  0
   17.4624   11.0341   10.5971 N   0  0  0  0  0  0  0  0  0  0  0  0
   16.3229   10.2508   10.8584 C   0  0  0  0  0  0  0  0  0  0  0  0
   15.7358   10.2218   12.1080 C   0  0  0  0  0  0  0  0  0  0  0  0
   14.7924    9.2537   12.3734 C   0  0  0  0  0  0  0  0  0  0  0  0
   14.1726    9.3353   13.5498 F   0  0  0  0  0  0  0  0  0  0  0  0
   14.4465    8.2878   11.4315 C   0  0  0  0  0  0  0  0  0  0  0  0
   13.5374    7.3401   11.7011 F   0  0  0  0  0  0  0  0  0  0  0  0
   14.9410    8.3764   10.1548 C   0  0  0  0  0  0  0  0  0  0  0  0
   15.8253    9.4032    9.8494 C   0  0  0  0  0  0  0  0  0  0  0  0
   16.2976    9.4521    8.5485 N   0  0  0  0  0  0  0  0  0  0  0  0
  1  2  1  0
  3  2  1  1
  3  4  1  0
  4  5  2  0
  4  6  1  0
  3  7  1  0
  7  8  2  0
  7  9  1  0
  9 10  1  0
 10 11  2  0
 11 12  1  0
 12 13  1  0
 12 14  2  0
 14 15  1  0
 14 16  1  0
 16 17  2  0
 17 18  1  0
 17 10  1  0
M  END
>  <HIPPO ID>  (263) 
113042

>  <alias>  (263) 
None

>  <ref_mols>  (263) 
c0692a,c1116a

>  <submitter_email>  (263) 
None

>  <ref_pdb>  (263) 
c0270a

>  <inchikey>  (263) 
XTGBLXWAXRGXJV-QMMMGPOBSA-N

>  <generation_date>  (263) 
None

>  <original ID>  (263) 
XTGBLXWAXRGXJV-QMMMGPOBSA-N

>  <tags>  (263) 
[]

>  <exports>  (263) 
nan

>  <method>  (263) 
None

>  <submitter_name>  (263) 
None

>  <original SMILES>  (263) 
CO[C@H](C(=O)O)C(=O)Nc1cc(F)c(F)cc1N

>  <ref_url>  (263) 
None

$$$$
XTGBLXWAXRGXJV-MRVPVSSYSA-N
     RDKit          3D

 18 18  0  0  0  0  0  0  0  0999 V2000
   21.5004   11.3651   10.5235 C   0  0  0  0  0  0  0  0  0  0  0  0
   20.0824   11.4223   10.3792 O   0  0  0  0  0  0  0  0  0  0  0  0
   19.4982   12.4052   11.2314 C   0  0  1  0  0  0  0  0  0  0  0  0
   19.7378   13.8454   10.8010 C   0  0  0  0  0  0  0  0  0  0  0  0
   20.1339   14.2295    9.7087 O   0  0  0  0  0  0  0  0  0  0  0  0
   19.4943   14.7435   11.7743 O   0  0  0  0  0  0  0  0  0  0  0  0
   18.0025   12.0951   11.4083 C   0  0  0  0  0  0  0  0  0  0  0  0
   17.3079   12.7141   12.2137 O   0  0  0  0  0  0  0  0  0  0  0  0
   17.5218   11.0597   10.6195 N   0  0  0  0  0  0  0  0  0  0  0  0
   16.3662   10.2910   10.8637 C   0  0  0  0  0  0  0  0  0  0  0  0
   15.7565   10.2885   12.1038 C   0  0  0  0  0  0  0  0  0  0  0  0
   14.8046    9.3285   12.3738 C   0  0  0  0  0  0  0  0  0  0  0  0
   14.1685    9.4323   13.5397 F   0  0  0  0  0  0  0  0  0  0  0  0
   14.4726    8.3434   11.4470 C   0  0  0  0  0  0  0  0  0  0  0  0
   13.5659    7.3948   11.7215 F   0  0  0  0  0  0  0  0  0  0  0  0
   14.9838    8.4080   10.1763 C   0  0  0  0  0  0  0  0  0  0  0  0
   15.8781    9.4247    9.8651 C   0  0  0  0  0  0  0  0  0  0  0  0
   16.3496    9.4500    8.5624 N   0  0  0  0  0  0  0  0  0  0  0  0
  1  2  1  0
  3  2  1  6
  3  4  1  0
  4  5  2  0
  4  6  1  0
  3  7  1  0
  7  8  2  0
  7  9  1  0
  9 10  1  0
 10 11  2  0
 11 12  1  0
 12 13  1  0
 12 14  2  0
 14 15  1  0
 14 16  1  0
 16 17  2  0
 17 18  1  0
 17 10  1  0
M  END
>  <HIPPO ID>  (264) 
113043

>  <alias>  (264) 
None

>  <ref_mols>  (264) 
c0692a,c1116a

>  <submitter_email>  (264) 
None

>  <ref_pdb>  (264) 
c0270a

>  <inchikey>  (264) 
XTGBLXWAXRGXJV-MRVPVSSYSA-N

>  <generation_date>  (264) 
None

>  <original ID>  (264) 
XTGBLXWAXRGXJV-MRVPVSSYSA-N

>  <tags>  (264) 
[]

>  <exports>  (264) 
nan

>  <method>  (264) 
None

>  <submitter_name>  (264) 
None

>  <original SMILES>  (264) 
CO[C@@H](C(=O)O)C(=O)Nc1cc(F)c(F)cc1N

>  <ref_url>  (264) 
None

$$$$
AEVVOFWFEFEAHM-UHFFFAOYSA-N
     RDKit          3D

 18 18  0  0  0  0  0  0  0  0999 V2000
   21.7699   13.5536   10.3332 C   0  0  0  0  0  0  0  0  0  0  0  0
   21.4918   12.1444   10.8742 C   0  0  0  0  0  0  0  0  0  0  0  0
   22.2661   11.1229   10.0660 C   0  0  0  0  0  0  0  0  0  0  0  0
   21.9969   12.0381   12.3159 C   0  0  0  0  0  0  0  0  0  0  0  0
   20.1075   11.7560   10.7530 O   0  0  0  0  0  0  0  0  0  0  0  0
   19.1865   12.6693   11.3112 C   0  0  0  0  0  0  0  0  0  0  0  0
   17.7755   12.1236   11.4926 C   0  0  0  0  0  0  0  0  0  0  0  0
   17.0212   12.6698   12.2987 O   0  0  0  0  0  0  0  0  0  0  0  0
   17.4268   11.0593   10.6865 N   0  0  0  0  0  0  0  0  0  0  0  0
   16.3136   10.2208   10.8998 C   0  0  0  0  0  0  0  0  0  0  0  0
   15.7221   10.1402   12.1478 C   0  0  0  0  0  0  0  0  0  0  0  0
   14.7794    9.1647   12.3805 C   0  0  0  0  0  0  0  0  0  0  0  0
   14.1583    9.2101   13.5577 F   0  0  0  0  0  0  0  0  0  0  0  0
   14.4334    8.2347   11.4064 C   0  0  0  0  0  0  0  0  0  0  0  0
   13.5099    7.2908   11.6370 F   0  0  0  0  0  0  0  0  0  0  0  0
   14.9455    8.3584   10.1390 C   0  0  0  0  0  0  0  0  0  0  0  0
   15.8370    9.3915    9.8671 C   0  0  0  0  0  0  0  0  0  0  0  0
   16.3166    9.4654    8.5702 N   0  0  0  0  0  0  0  0  0  0  0  0
  1  2  1  0
  2  3  1  0
  2  4  1  0
  2  5  1  0
  5  6  1  0
  6  7  1  0
  7  8  2  0
  7  9  1  0
  9 10  1  0
 10 11  2  0
 11 12  1  0
 12 13  1  0
 12 14  2  0
 14 15  1  0
 14 16  1  0
 16 17  2  0
 17 18  1  0
 17 10  1  0
M  END
>  <HIPPO ID>  (265) 
113044

>  <alias>  (265) 
None

>  <ref_mols>  (265) 
c0692a,c1116a

>  <submitter_email>  (265) 
None

>  <ref_pdb>  (265) 
c0270a

>  <inchikey>  (265) 
AEVVOFWFEFEAHM-UHFFFAOYSA-N

>  <generation_date>  (265) 
None

>  <original ID>  (265) 
AEVVOFWFEFEAHM-UHFFFAOYSA-N

>  <tags>  (265) 
[]

>  <exports>  (265) 
nan

>  <method>  (265) 
None

>  <submitter_name>  (265) 
None

>  <original SMILES>  (265) 
CC(C)(C)OCC(=O)Nc1cc(F)c(F)cc1N

>  <ref_url>  (265) 
None

$$$$
RMNYKBPGJQKPGU-UHFFFAOYSA-N
     RDKit          3D

 18 18  0  0  0  0  0  0  0  0999 V2000
   22.1635   11.1952   10.1239 C   0  0  0  0  0  0  0  0  0  0  0  0
   21.7377   12.6468   10.3221 C   0  0  0  0  0  0  0  0  0  0  0  0
   22.2628   13.2077   11.6405 C   0  0  0  0  0  0  0  0  0  0  0  0
   22.3462   13.5121    9.2055 C   0  0  0  0  0  0  0  0  0  0  0  0
   20.2958   12.7594   10.2454 O   0  0  0  0  0  0  0  0  0  0  0  0
   19.6124   12.1724   11.3250 C   0  0  0  0  0  0  0  0  0  0  0  0
   18.0972   12.0753   11.2169 C   0  0  0  0  0  0  0  0  0  0  0  0
   17.3545   12.8754   11.7882 O   0  0  0  0  0  0  0  0  0  0  0  0
   17.6732   10.9781   10.5023 N   0  0  0  0  0  0  0  0  0  0  0  0
   16.4728   10.2727   10.6912 C   0  0  0  0  0  0  0  0  0  0  0  0
   16.0582    9.4450    9.6338 C   0  0  0  0  0  0  0  0  0  0  0  0
   15.0291    8.5280    9.7964 C   0  0  0  0  0  0  0  0  0  0  0  0
   14.4637    8.3871   11.0390 C   0  0  0  0  0  0  0  0  0  0  0  0
   13.5287    7.4440   11.2205 F   0  0  0  0  0  0  0  0  0  0  0  0
   14.8182    9.2598   12.0629 C   0  0  0  0  0  0  0  0  0  0  0  0
   14.1904    9.2316   13.2417 F   0  0  0  0  0  0  0  0  0  0  0  0
   15.7744   10.2552   11.9038 C   0  0  0  0  0  0  0  0  0  0  0  0
   16.1504   10.9864   13.0587 N   0  0  0  0  0  0  0  0  0  0  0  0
  1  2  1  0
  2  3  1  0
  2  4  1  0
  2  5  1  0
  5  6  1  0
  6  7  1  0
  7  8  2  0
  7  9  1  0
  9 10  1  0
 10 11  2  0
 11 12  1  0
 12 13  2  0
 13 14  1  0
 13 15  1  0
 15 16  1  0
 15 17  2  0
 17 18  1  0
 17 10  1  0
M  END
>  <HIPPO ID>  (266) 
113045

>  <alias>  (266) 
None

>  <ref_mols>  (266) 
c0692a,c1116a

>  <submitter_email>  (266) 
None

>  <ref_pdb>  (266) 
c0270a

>  <inchikey>  (266) 
RMNYKBPGJQKPGU-UHFFFAOYSA-N

>  <generation_date>  (266) 
None

>  <original ID>  (266) 
RMNYKBPGJQKPGU-UHFFFAOYSA-N

>  <tags>  (266) 
[]

>  <exports>  (266) 
nan

>  <method>  (266) 
None

>  <submitter_name>  (266) 
None

>  <original SMILES>  (266) 
CC(C)(C)OCC(=O)Nc1ccc(F)c(F)c1N

>  <ref_url>  (266) 
None

$$$$
IWNRTGHFIJZYMT-UHFFFAOYSA-N
     RDKit          3D

 18 18  0  0  0  0  0  0  0  0999 V2000
   21.7643   13.5815   10.4125 C   0  0  0  0  0  0  0  0  0  0  0  0
   21.4729   12.1944   10.9966 C   0  0  0  0  0  0  0  0  0  0  0  0
   22.2603   11.1375   10.2510 C   0  0  0  0  0  0  0  0  0  0  0  0
   21.9567   12.1643   12.4464 C   0  0  0  0  0  0  0  0  0  0  0  0
   20.0935   11.7997   10.8617 O   0  0  0  0  0  0  0  0  0  0  0  0
   19.1614   12.7300   11.3704 C   0  0  0  0  0  0  0  0  0  0  0  0
   17.7186   12.2480   11.4391 C   0  0  0  0  0  0  0  0  0  0  0  0
   16.8742   12.9491   11.9977 O   0  0  0  0  0  0  0  0  0  0  0  0
   17.4441   11.0628   10.7980 N   0  0  0  0  0  0  0  0  0  0  0  0
   16.3162   10.2586   11.0705 C   0  0  0  0  0  0  0  0  0  0  0  0
   15.8578    9.3570   10.0977 C   0  0  0  0  0  0  0  0  0  0  0  0
   16.3845    9.3379    8.8271 N   0  0  0  0  0  0  0  0  0  0  0  0
   14.9875    8.3194   10.4474 C   0  0  0  0  0  0  0  0  0  0  0  0
   14.4807    8.2507   11.7286 C   0  0  0  0  0  0  0  0  0  0  0  0
   14.7848    9.2725   12.6162 C   0  0  0  0  0  0  0  0  0  0  0  0
   14.1397    9.3705   13.7770 F   0  0  0  0  0  0  0  0  0  0  0  0
   15.7197   10.2371   12.3215 C   0  0  0  0  0  0  0  0  0  0  0  0
   16.1184   11.0280   13.3245 F   0  0  0  0  0  0  0  0  0  0  0  0
  1  2  1  0
  2  3  1  0
  2  4  1  0
  2  5  1  0
  5  6  1  0
  6  7  1  0
  7  8  2  0
  7  9  1  0
  9 10  1  0
 10 11  2  0
 11 12  1  0
 11 13  1  0
 13 14  2  0
 14 15  1  0
 15 16  1  0
 15 17  2  0
 17 18  1  0
 17 10  1  0
M  END
>  <HIPPO ID>  (267) 
113046

>  <alias>  (267) 
None

>  <ref_mols>  (267) 
c0692a,c1116a

>  <submitter_email>  (267) 
None

>  <ref_pdb>  (267) 
c0270a

>  <inchikey>  (267) 
IWNRTGHFIJZYMT-UHFFFAOYSA-N

>  <generation_date>  (267) 
None

>  <original ID>  (267) 
IWNRTGHFIJZYMT-UHFFFAOYSA-N

>  <tags>  (267) 
[]

>  <exports>  (267) 
nan

>  <method>  (267) 
None

>  <submitter_name>  (267) 
None

>  <original SMILES>  (267) 
CC(C)(C)OCC(=O)Nc1c(N)ccc(F)c1F

>  <ref_url>  (267) 
None

$$$$
ZBPHOKYGLWAOAU-MRVPVSSYSA-N
     RDKit          3D

 18 18  0  0  0  0  0  0  0  0999 V2000
   21.5127   11.3853   10.5198 C   0  0  0  0  0  0  0  0  0  0  0  0
   20.0953   11.4544   10.3838 O   0  0  0  0  0  0  0  0  0  0  0  0
   19.5238   12.4434   11.2353 C   0  0  1  0  0  0  0  0  0  0  0  0
   19.7758   13.8827   10.8045 C   0  0  0  0  0  0  0  0  0  0  0  0
   20.0877   14.2723    9.6872 O   0  0  0  0  0  0  0  0  0  0  0  0
   19.6470   14.7715   11.8087 O   0  0  0  0  0  0  0  0  0  0  0  0
   18.0244   12.1630   11.4081 C   0  0  0  0  0  0  0  0  0  0  0  0
   17.3260   12.8440   12.1591 O   0  0  0  0  0  0  0  0  0  0  0  0
   17.5409   11.0831   10.6872 N   0  0  0  0  0  0  0  0  0  0  0  0
   16.3805   10.3414   10.9840 C   0  0  0  0  0  0  0  0  0  0  0  0
   15.8004   10.4007   12.2368 C   0  0  0  0  0  0  0  0  0  0  0  0
   14.8756    9.4384   12.5994 C   0  0  0  0  0  0  0  0  0  0  0  0
   14.2117    9.6011   14.1599 Cl  0  0  0  0  0  0  0  0  0  0  0  0
   14.5208    8.4175   11.7191 C   0  0  0  0  0  0  0  0  0  0  0  0
   13.6460    7.4549   12.0479 F   0  0  0  0  0  0  0  0  0  0  0  0
   14.9950    8.4271   10.4306 C   0  0  0  0  0  0  0  0  0  0  0  0
   15.8897    9.4190   10.0458 C   0  0  0  0  0  0  0  0  0  0  0  0
   16.4218    9.3241    8.7816 N   0  0  0  0  0  0  0  0  0  0  0  0
  1  2  1  0
  3  2  1  6
  3  4  1  0
  4  5  2  0
  4  6  1  0
  3  7  1  0
  7  8  2  0
  7  9  1  0
  9 10  1  0
 10 11  2  0
 11 12  1  0
 12 13  1  0
 12 14  2  0
 14 15  1  0
 14 16  1  0
 16 17  2  0
 17 18  1  0
 17 10  1  0
M  END
>  <HIPPO ID>  (268) 
113064

>  <alias>  (268) 
None

>  <ref_mols>  (268) 
c0692a,c1116a

>  <submitter_email>  (268) 
None

>  <ref_pdb>  (268) 
c0270a

>  <inchikey>  (268) 
ZBPHOKYGLWAOAU-MRVPVSSYSA-N

>  <generation_date>  (268) 
None

>  <original ID>  (268) 
ZBPHOKYGLWAOAU-MRVPVSSYSA-N

>  <tags>  (268) 
[]

>  <exports>  (268) 
nan

>  <method>  (268) 
None

>  <submitter_name>  (268) 
None

>  <original SMILES>  (268) 
CO[C@@H](C(=O)O)C(=O)Nc1cc(Cl)c(F)cc1N

>  <ref_url>  (268) 
None

$$$$
ZSMDRMRFQYVMRR-QMMMGPOBSA-N
     RDKit          3D

 18 18  0  0  0  0  0  0  0  0999 V2000
   21.3873   11.3665   10.3787 C   0  0  0  0  0  0  0  0  0  0  0  0
   19.9688   11.2796   10.5021 O   0  0  0  0  0  0  0  0  0  0  0  0
   19.3569   12.4074   11.1360 C   0  0  2  0  0  0  0  0  0  0  0  0
   20.0617   13.0016   12.3551 C   0  0  0  0  0  0  0  0  0  0  0  0
   21.0682   12.5661   12.8877 O   0  0  0  0  0  0  0  0  0  0  0  0
   19.5232   14.1496   12.8070 O   0  0  0  0  0  0  0  0  0  0  0  0
   17.9084   11.9992   11.4696 C   0  0  0  0  0  0  0  0  0  0  0  0
   17.2794   12.4940   12.4029 O   0  0  0  0  0  0  0  0  0  0  0  0
   17.3791   11.0411   10.6166 N   0  0  0  0  0  0  0  0  0  0  0  0
   16.2637   10.2170   10.8632 C   0  0  0  0  0  0  0  0  0  0  0  0
   15.6729   10.1321   12.1083 C   0  0  0  0  0  0  0  0  0  0  0  0
   14.7926    9.0969   12.3632 C   0  0  0  0  0  0  0  0  0  0  0  0
   14.2046    9.1145   13.5585 F   0  0  0  0  0  0  0  0  0  0  0  0
   14.4936    8.1271   11.4071 C   0  0  0  0  0  0  0  0  0  0  0  0
   13.5162    6.7465   11.7324 Cl  0  0  0  0  0  0  0  0  0  0  0  0
   14.9666    8.2983   10.1262 C   0  0  0  0  0  0  0  0  0  0  0  0
   15.8054    9.3704    9.8392 C   0  0  0  0  0  0  0  0  0  0  0  0
   16.3008    9.4428    8.5459 N   0  0  0  0  0  0  0  0  0  0  0  0
  1  2  1  0
  3  2  1  1
  3  4  1  0
  4  5  2  0
  4  6  1  0
  3  7  1  0
  7  8  2  0
  7  9  1  0
  9 10  1  0
 10 11  2  0
 11 12  1  0
 12 13  1  0
 12 14  2  0
 14 15  1  0
 14 16  1  0
 16 17  2  0
 17 18  1  0
 17 10  1  0
M  END
>  <HIPPO ID>  (269) 
113065

>  <alias>  (269) 
None

>  <ref_mols>  (269) 
c0692a,c1116a

>  <submitter_email>  (269) 
None

>  <ref_pdb>  (269) 
c0270a

>  <inchikey>  (269) 
ZSMDRMRFQYVMRR-QMMMGPOBSA-N

>  <generation_date>  (269) 
None

>  <original ID>  (269) 
ZSMDRMRFQYVMRR-QMMMGPOBSA-N

>  <tags>  (269) 
[]

>  <exports>  (269) 
nan

>  <method>  (269) 
None

>  <submitter_name>  (269) 
None

>  <original SMILES>  (269) 
CO[C@H](C(=O)O)C(=O)Nc1cc(F)c(Cl)cc1N

>  <ref_url>  (269) 
None

$$$$
ZSMDRMRFQYVMRR-MRVPVSSYSA-N
     RDKit          3D

 18 18  0  0  0  0  0  0  0  0999 V2000
   21.4759   11.3567   10.4991 C   0  0  0  0  0  0  0  0  0  0  0  0
   20.0565   11.4191   10.3667 O   0  0  0  0  0  0  0  0  0  0  0  0
   19.4851   12.3943   11.2368 C   0  0  1  0  0  0  0  0  0  0  0  0
   19.7665   13.8366   10.8370 C   0  0  0  0  0  0  0  0  0  0  0  0
   19.9635   14.2670    9.7097 O   0  0  0  0  0  0  0  0  0  0  0  0
   19.8529   14.6738   11.8862 O   0  0  0  0  0  0  0  0  0  0  0  0
   17.9826   12.1050   11.4160 C   0  0  0  0  0  0  0  0  0  0  0  0
   17.3032   12.7202   12.2366 O   0  0  0  0  0  0  0  0  0  0  0  0
   17.4862   11.0820   10.6194 N   0  0  0  0  0  0  0  0  0  0  0  0
   16.3396   10.2953   10.8611 C   0  0  0  0  0  0  0  0  0  0  0  0
   15.7230   10.2665   12.0968 C   0  0  0  0  0  0  0  0  0  0  0  0
   14.8296    9.2451   12.3762 C   0  0  0  0  0  0  0  0  0  0  0  0
   14.2195    9.3094   13.5591 F   0  0  0  0  0  0  0  0  0  0  0  0
   14.5501    8.2326   11.4574 C   0  0  0  0  0  0  0  0  0  0  0  0
   13.5966    6.8448   11.8243 Cl  0  0  0  0  0  0  0  0  0  0  0  0
   15.0353    8.3565   10.1771 C   0  0  0  0  0  0  0  0  0  0  0  0
   15.8810    9.4154    9.8632 C   0  0  0  0  0  0  0  0  0  0  0  0
   16.3619    9.4456    8.5630 N   0  0  0  0  0  0  0  0  0  0  0  0
  1  2  1  0
  3  2  1  6
  3  4  1  0
  4  5  2  0
  4  6  1  0
  3  7  1  0
  7  8  2  0
  7  9  1  0
  9 10  1  0
 10 11  2  0
 11 12  1  0
 12 13  1  0
 12 14  2  0
 14 15  1  0
 14 16  1  0
 16 17  2  0
 17 18  1  0
 17 10  1  0
M  END
>  <HIPPO ID>  (270) 
113066

>  <alias>  (270) 
None

>  <ref_mols>  (270) 
c0692a,c1116a

>  <submitter_email>  (270) 
None

>  <ref_pdb>  (270) 
c0270a

>  <inchikey>  (270) 
ZSMDRMRFQYVMRR-MRVPVSSYSA-N

>  <generation_date>  (270) 
None

>  <original ID>  (270) 
ZSMDRMRFQYVMRR-MRVPVSSYSA-N

>  <tags>  (270) 
[]

>  <exports>  (270) 
nan

>  <method>  (270) 
None

>  <submitter_name>  (270) 
None

>  <original SMILES>  (270) 
CO[C@@H](C(=O)O)C(=O)Nc1cc(F)c(Cl)cc1N

>  <ref_url>  (270) 
None

$$$$
APGUAZIVHFCAJZ-QMMMGPOBSA-N
     RDKit          3D

 18 18  0  0  0  0  0  0  0  0999 V2000
   21.4642   11.3741   10.3496 C   0  0  0  0  0  0  0  0  0  0  0  0
   20.0458   11.2858   10.4778 O   0  0  0  0  0  0  0  0  0  0  0  0
   19.4401   12.4309   11.0897 C   0  0  2  0  0  0  0  0  0  0  0  0
   20.1080   12.9614   12.3557 C   0  0  0  0  0  0  0  0  0  0  0  0
   21.1002   12.4925   12.8885 O   0  0  0  0  0  0  0  0  0  0  0  0
   19.5708   14.0871   12.8570 O   0  0  0  0  0  0  0  0  0  0  0  0
   17.9521   12.1057   11.3204 C   0  0  0  0  0  0  0  0  0  0  0  0
   17.2205   12.8091   12.0128 O   0  0  0  0  0  0  0  0  0  0  0  0
   17.4958   11.0047   10.6133 N   0  0  0  0  0  0  0  0  0  0  0  0
   16.3483   10.2390   10.9037 C   0  0  0  0  0  0  0  0  0  0  0  0
   15.8336    9.3868    9.9090 C   0  0  0  0  0  0  0  0  0  0  0  0
   16.2817    9.4324    8.5943 N   0  0  0  0  0  0  0  0  0  0  0  0
   14.9638    8.3484   10.2438 C   0  0  0  0  0  0  0  0  0  0  0  0
   14.4875    8.2466   11.5354 C   0  0  0  0  0  0  0  0  0  0  0  0
   14.8309    9.2346   12.4488 C   0  0  0  0  0  0  0  0  0  0  0  0
   14.2165    9.3047   13.6285 F   0  0  0  0  0  0  0  0  0  0  0  0
   15.7785   10.1922   12.1656 C   0  0  0  0  0  0  0  0  0  0  0  0
   16.2019   10.9487   13.1841 F   0  0  0  0  0  0  0  0  0  0  0  0
  1  2  1  0
  3  2  1  1
  3  4  1  0
  4  5  2  0
  4  6  1  0
  3  7  1  0
  7  8  2  0
  7  9  1  0
  9 10  1  0
 10 11  2  0
 11 12  1  0
 11 13  1  0
 13 14  2  0
 14 15  1  0
 15 16  1  0
 15 17  2  0
 17 18  1  0
 17 10  1  0
M  END
>  <HIPPO ID>  (271) 
113079

>  <alias>  (271) 
None

>  <ref_mols>  (271) 
c0692a,c1116a

>  <submitter_email>  (271) 
None

>  <ref_pdb>  (271) 
c0270a

>  <inchikey>  (271) 
APGUAZIVHFCAJZ-QMMMGPOBSA-N

>  <generation_date>  (271) 
None

>  <original ID>  (271) 
APGUAZIVHFCAJZ-QMMMGPOBSA-N

>  <tags>  (271) 
[]

>  <exports>  (271) 
nan

>  <method>  (271) 
None

>  <submitter_name>  (271) 
None

>  <original SMILES>  (271) 
CO[C@H](C(=O)O)C(=O)Nc1c(N)ccc(F)c1F

>  <ref_url>  (271) 
None

$$$$
APGUAZIVHFCAJZ-MRVPVSSYSA-N
     RDKit          3D

 18 18  0  0  0  0  0  0  0  0999 V2000
   21.4923   11.3780   10.5720 C   0  0  0  0  0  0  0  0  0  0  0  0
   20.0776   11.4263   10.4036 O   0  0  0  0  0  0  0  0  0  0  0  0
   19.4702   12.4233   11.2252 C   0  0  1  0  0  0  0  0  0  0  0  0
   19.7446   13.8581   10.7943 C   0  0  0  0  0  0  0  0  0  0  0  0
   20.1646   14.2323    9.7076 O   0  0  0  0  0  0  0  0  0  0  0  0
   19.5009   14.7633   11.7613 O   0  0  0  0  0  0  0  0  0  0  0  0
   17.9628   12.1390   11.3338 C   0  0  0  0  0  0  0  0  0  0  0  0
   17.2103   12.8618   11.9838 O   0  0  0  0  0  0  0  0  0  0  0  0
   17.5343   11.0212   10.6349 N   0  0  0  0  0  0  0  0  0  0  0  0
   16.3774   10.2610   10.9097 C   0  0  0  0  0  0  0  0  0  0  0  0
   15.8637    9.4052    9.9172 C   0  0  0  0  0  0  0  0  0  0  0  0
   16.3109    9.4386    8.6025 N   0  0  0  0  0  0  0  0  0  0  0  0
   14.9846    8.3741   10.2522 C   0  0  0  0  0  0  0  0  0  0  0  0
   14.4998    8.2812   11.5408 C   0  0  0  0  0  0  0  0  0  0  0  0
   14.8425    9.2718   12.4510 C   0  0  0  0  0  0  0  0  0  0  0  0
   14.2221    9.3500   13.6270 F   0  0  0  0  0  0  0  0  0  0  0  0
   15.8003   10.2202   12.1691 C   0  0  0  0  0  0  0  0  0  0  0  0
   16.2344   10.9700   13.1886 F   0  0  0  0  0  0  0  0  0  0  0  0
  1  2  1  0
  3  2  1  6
  3  4  1  0
  4  5  2  0
  4  6  1  0
  3  7  1  0
  7  8  2  0
  7  9  1  0
  9 10  1  0
 10 11  2  0
 11 12  1  0
 11 13  1  0
 13 14  2  0
 14 15  1  0
 15 16  1  0
 15 17  2  0
 17 18  1  0
 17 10  1  0
M  END
>  <HIPPO ID>  (272) 
113080

>  <alias>  (272) 
None

>  <ref_mols>  (272) 
c0692a,c1116a

>  <submitter_email>  (272) 
None

>  <ref_pdb>  (272) 
c0270a

>  <inchikey>  (272) 
APGUAZIVHFCAJZ-MRVPVSSYSA-N

>  <generation_date>  (272) 
None

>  <original ID>  (272) 
APGUAZIVHFCAJZ-MRVPVSSYSA-N

>  <tags>  (272) 
[]

>  <exports>  (272) 
nan

>  <method>  (272) 
None

>  <submitter_name>  (272) 
None

>  <original SMILES>  (272) 
CO[C@@H](C(=O)O)C(=O)Nc1c(N)ccc(F)c1F

>  <ref_url>  (272) 
None

$$$$
YCFGCZQMNMGSSP-UHFFFAOYSA-N
     RDKit          3D

 18 18  0  0  0  0  0  0  0  0999 V2000
   22.1853   11.0047   10.3197 C   0  0  0  0  0  0  0  0  0  0  0  0
   21.4292   12.2361   10.7732 C   0  0  0  0  0  0  0  0  0  0  0  0
   21.8916   12.5687   12.1934 C   0  0  0  0  0  0  0  0  0  0  0  0
   21.7836   13.4097    9.8478 C   0  0  0  0  0  0  0  0  0  0  0  0
   20.0410   11.8444   10.6877 O   0  0  0  0  0  0  0  0  0  0  0  0
   19.1225   12.7063   11.3247 C   0  0  0  0  0  0  0  0  0  0  0  0
   17.7174   12.1330   11.5093 C   0  0  0  0  0  0  0  0  0  0  0  0
   16.9681   12.6443   12.3422 O   0  0  0  0  0  0  0  0  0  0  0  0
   17.3735   11.0780   10.6901 N   0  0  0  0  0  0  0  0  0  0  0  0
   16.2774   10.2118   10.8963 C   0  0  0  0  0  0  0  0  0  0  0  0
   15.6752   10.0997   12.1364 C   0  0  0  0  0  0  0  0  0  0  0  0
   14.7915    9.0628   12.3698 C   0  0  0  0  0  0  0  0  0  0  0  0
   14.1946    9.0650   13.5606 F   0  0  0  0  0  0  0  0  0  0  0  0
   14.4988    8.1093   11.3979 C   0  0  0  0  0  0  0  0  0  0  0  0
   13.5083    6.7318   11.6927 Cl  0  0  0  0  0  0  0  0  0  0  0  0
   14.9923    8.2957   10.1269 C   0  0  0  0  0  0  0  0  0  0  0  0
   15.8384    9.3701    9.8609 C   0  0  0  0  0  0  0  0  0  0  0  0
   16.3353    9.4537    8.5699 N   0  0  0  0  0  0  0  0  0  0  0  0
  1  2  1  0
  2  3  1  0
  2  4  1  0
  2  5  1  0
  5  6  1  0
  6  7  1  0
  7  8  2  0
  7  9  1  0
  9 10  1  0
 10 11  2  0
 11 12  1  0
 12 13  1  0
 12 14  2  0
 14 15  1  0
 14 16  1  0
 16 17  2  0
 17 18  1  0
 17 10  1  0
M  END
>  <HIPPO ID>  (273) 
113081

>  <alias>  (273) 
None

>  <ref_mols>  (273) 
c0692a,c1116a

>  <submitter_email>  (273) 
None

>  <ref_pdb>  (273) 
c0270a

>  <inchikey>  (273) 
YCFGCZQMNMGSSP-UHFFFAOYSA-N

>  <generation_date>  (273) 
None

>  <original ID>  (273) 
YCFGCZQMNMGSSP-UHFFFAOYSA-N

>  <tags>  (273) 
[]

>  <exports>  (273) 
nan

>  <method>  (273) 
None

>  <submitter_name>  (273) 
None

>  <original SMILES>  (273) 
CC(C)(C)OCC(=O)Nc1cc(F)c(Cl)cc1N

>  <ref_url>  (273) 
None

$$$$
CTWNEBJEMUGKMW-UHFFFAOYSA-N
     RDKit          3D

 18 18  0  0  0  0  0  0  0  0999 V2000
   22.1065   11.3770   11.9699 C   0  0  0  0  0  0  0  0  0  0  0  0
   21.6266   12.3046   10.8598 C   0  0  0  0  0  0  0  0  0  0  0  0
   22.5073   12.0641    9.6412 C   0  0  0  0  0  0  0  0  0  0  0  0
   21.8384   13.7661   11.2778 C   0  0  0  0  0  0  0  0  0  0  0  0
   20.2547   11.9667   10.5212 O   0  0  0  0  0  0  0  0  0  0  0  0
   19.2912   12.6484   11.2962 C   0  0  0  0  0  0  0  0  0  0  0  0
   17.8623   12.1211   11.3997 C   0  0  0  0  0  0  0  0  0  0  0  0
   17.0756   12.7023   12.1519 O   0  0  0  0  0  0  0  0  0  0  0  0
   17.5321   11.0235   10.6364 N   0  0  0  0  0  0  0  0  0  0  0  0
   16.3993   10.2152   10.8790 C   0  0  0  0  0  0  0  0  0  0  0  0
   15.8651   10.1425   12.1554 C   0  0  0  0  0  0  0  0  0  0  0  0
   14.9091    9.1900   12.4500 C   0  0  0  0  0  0  0  0  0  0  0  0
   14.2848    9.2453   14.0369 Cl  0  0  0  0  0  0  0  0  0  0  0  0
   14.4906    8.2814   11.4814 C   0  0  0  0  0  0  0  0  0  0  0  0
   13.5693    7.3415   11.7404 F   0  0  0  0  0  0  0  0  0  0  0  0
   14.9486    8.3972   10.1874 C   0  0  0  0  0  0  0  0  0  0  0  0
   15.8579    9.4023    9.8713 C   0  0  0  0  0  0  0  0  0  0  0  0
   16.2926    9.4596    8.5576 N   0  0  0  0  0  0  0  0  0  0  0  0
  1  2  1  0
  2  3  1  0
  2  4  1  0
  2  5  1  0
  5  6  1  0
  6  7  1  0
  7  8  2  0
  7  9  1  0
  9 10  1  0
 10 11  2  0
 11 12  1  0
 12 13  1  0
 12 14  2  0
 14 15  1  0
 14 16  1  0
 16 17  2  0
 17 18  1  0
 17 10  1  0
M  END
>  <HIPPO ID>  (274) 
113083

>  <alias>  (274) 
None

>  <ref_mols>  (274) 
c0692a,c1116a

>  <submitter_email>  (274) 
None

>  <ref_pdb>  (274) 
c0270a

>  <inchikey>  (274) 
CTWNEBJEMUGKMW-UHFFFAOYSA-N

>  <generation_date>  (274) 
None

>  <original ID>  (274) 
CTWNEBJEMUGKMW-UHFFFAOYSA-N

>  <tags>  (274) 
[]

>  <exports>  (274) 
nan

>  <method>  (274) 
None

>  <submitter_name>  (274) 
None

>  <original SMILES>  (274) 
CC(C)(C)OCC(=O)Nc1cc(Cl)c(F)cc1N

>  <ref_url>  (274) 
None

$$$$
KOQIJSYWKHSKKE-UHFFFAOYSA-N
     RDKit          3D

 18 18  0  0  0  0  0  0  0  0999 V2000
   15.9498   10.9496   13.4791 C   0  0  0  0  0  0  0  0  0  0  0  0
   15.6907   10.1028   12.2725 C   0  0  0  0  0  0  0  0  0  0  0  0
   14.7722    9.0751   12.4538 C   0  0  0  0  0  0  0  0  0  0  0  0
   14.1116    9.0442   13.6116 F   0  0  0  0  0  0  0  0  0  0  0  0
   14.4723    8.1291   11.4846 C   0  0  0  0  0  0  0  0  0  0  0  0
   14.9730    8.3130   10.2180 C   0  0  0  0  0  0  0  0  0  0  0  0
   15.8194    9.3911    9.9620 C   0  0  0  0  0  0  0  0  0  0  0  0
   16.2854    9.5005    8.6566 N   0  0  0  0  0  0  0  0  0  0  0  0
   16.2808   10.2232   11.0114 C   0  0  0  0  0  0  0  0  0  0  0  0
   17.4112   11.0392   10.7612 N   0  0  0  0  0  0  0  0  0  0  0  0
   17.7032   12.2381   11.3680 C   0  0  0  0  0  0  0  0  0  0  0  0
   16.8748   12.9699   11.9104 O   0  0  0  0  0  0  0  0  0  0  0  0
   19.1607   12.6902   11.3098 C   0  0  0  0  0  0  0  0  0  0  0  0
   20.0698   11.7666   10.7526 O   0  0  0  0  0  0  0  0  0  0  0  0
   21.4600   12.1397   10.8593 C   0  0  0  0  0  0  0  0  0  0  0  0
   21.9700   12.0949   12.3024 C   0  0  0  0  0  0  0  0  0  0  0  0
   22.2088   11.0677   10.0943 C   0  0  0  0  0  0  0  0  0  0  0  0
   21.7671   13.5205   10.2617 C   0  0  0  0  0  0  0  0  0  0  0  0
  1  2  1  0
  2  3  2  0
  3  4  1  0
  3  5  1  0
  5  6  2  0
  6  7  1  0
  7  8  1  0
  7  9  2  0
  9 10  1  0
 10 11  1  0
 11 12  2  0
 11 13  1  0
 13 14  1  0
 14 15  1  0
 15 16  1  0
 15 17  1  0
 15 18  1  0
  9  2  1  0
M  END
>  <HIPPO ID>  (275) 
113089

>  <alias>  (275) 
None

>  <ref_mols>  (275) 
c0692a,c1116a

>  <submitter_email>  (275) 
None

>  <ref_pdb>  (275) 
c0270a

>  <inchikey>  (275) 
KOQIJSYWKHSKKE-UHFFFAOYSA-N

>  <generation_date>  (275) 
None

>  <original ID>  (275) 
KOQIJSYWKHSKKE-UHFFFAOYSA-N

>  <tags>  (275) 
[]

>  <exports>  (275) 
nan

>  <method>  (275) 
None

>  <submitter_name>  (275) 
None

>  <original SMILES>  (275) 
Cc1c(F)ccc(N)c1NC(=O)COC(C)(C)C

>  <ref_url>  (275) 
None

$$$$
DENSULQNCYNOJO-UHFFFAOYSA-N
     RDKit          3D

 18 18  0  0  0  0  0  0  0  0999 V2000
   21.9625   12.0167   12.3250 C   0  0  0  0  0  0  0  0  0  0  0  0
   21.4478   12.1368   10.8879 C   0  0  0  0  0  0  0  0  0  0  0  0
   22.2369   11.1361   10.0653 C   0  0  0  0  0  0  0  0  0  0  0  0
   21.7048   13.5582   10.3684 C   0  0  0  0  0  0  0  0  0  0  0  0
   20.0658   11.7337   10.7678 O   0  0  0  0  0  0  0  0  0  0  0  0
   19.1332   12.6351   11.3311 C   0  0  0  0  0  0  0  0  0  0  0  0
   17.7329   12.0661   11.5505 C   0  0  0  0  0  0  0  0  0  0  0  0
   17.0165   12.5562   12.4236 O   0  0  0  0  0  0  0  0  0  0  0  0
   17.3536   11.0476   10.7013 N   0  0  0  0  0  0  0  0  0  0  0  0
   16.2567   10.1812   10.9030 C   0  0  0  0  0  0  0  0  0  0  0  0
   15.6602   10.0478   12.1438 C   0  0  0  0  0  0  0  0  0  0  0  0
   14.7838    9.0016   12.3668 C   0  0  0  0  0  0  0  0  0  0  0  0
   14.1948    8.9825   13.5611 F   0  0  0  0  0  0  0  0  0  0  0  0
   14.4906    8.0622   11.3827 C   0  0  0  0  0  0  0  0  0  0  0  0
   13.4289    6.5248   11.6861 Br  0  0  0  0  0  0  0  0  0  0  0  0
   14.9729    8.2751   10.1107 C   0  0  0  0  0  0  0  0  0  0  0  0
   15.8129    9.3575    9.8560 C   0  0  0  0  0  0  0  0  0  0  0  0
   16.3102    9.4591    8.5663 N   0  0  0  0  0  0  0  0  0  0  0  0
  1  2  1  0
  2  3  1  0
  2  4  1  0
  2  5  1  0
  5  6  1  0
  6  7  1  0
  7  8  2  0
  7  9  1  0
  9 10  1  0
 10 11  2  0
 11 12  1  0
 12 13  1  0
 12 14  2  0
 14 15  1  0
 14 16  1  0
 16 17  2  0
 17 18  1  0
 17 10  1  0
M  END
>  <HIPPO ID>  (276) 
113092

>  <alias>  (276) 
None

>  <ref_mols>  (276) 
c0692a,c1116a

>  <submitter_email>  (276) 
None

>  <ref_pdb>  (276) 
c0270a

>  <inchikey>  (276) 
DENSULQNCYNOJO-UHFFFAOYSA-N

>  <generation_date>  (276) 
None

>  <original ID>  (276) 
DENSULQNCYNOJO-UHFFFAOYSA-N

>  <tags>  (276) 
[]

>  <exports>  (276) 
nan

>  <method>  (276) 
None

>  <submitter_name>  (276) 
None

>  <original SMILES>  (276) 
CC(C)(C)OCC(=O)Nc1cc(F)c(Br)cc1N

>  <ref_url>  (276) 
None

$$$$
BLPSQPNWNSRHPO-UHFFFAOYSA-N
     RDKit          3D

 18 18  0  0  0  0  0  0  0  0999 V2000
   14.2599    8.8522   13.9237 C   0  0  0  0  0  0  0  0  0  0  0  0
   14.8429    9.0165   12.5592 C   0  0  0  0  0  0  0  0  0  0  0  0
   14.5169    8.0865   11.5626 C   0  0  0  0  0  0  0  0  0  0  0  0
   14.9404    8.2879   10.2653 C   0  0  0  0  0  0  0  0  0  0  0  0
   15.7585    9.3701    9.9679 C   0  0  0  0  0  0  0  0  0  0  0  0
   16.2138    9.4706    8.6529 N   0  0  0  0  0  0  0  0  0  0  0  0
   16.2420   10.2090   10.9972 C   0  0  0  0  0  0  0  0  0  0  0  0
   17.3713   10.9981   10.6807 N   0  0  0  0  0  0  0  0  0  0  0  0
   17.7856   12.1690   11.2661 C   0  0  0  0  0  0  0  0  0  0  0  0
   17.0501   12.9808   11.8262 O   0  0  0  0  0  0  0  0  0  0  0  0
   19.2773   12.4601   11.1327 C   0  0  0  0  0  0  0  0  0  0  0  0
   20.0486   11.3157   10.8033 O   0  0  0  0  0  0  0  0  0  0  0  0
   21.4182   11.6215   10.5358 C   0  0  0  0  0  0  0  0  0  0  0  0
   22.3117   11.6237   11.7724 C   0  0  0  0  0  0  0  0  0  0  0  0
   22.1424   12.8135   12.7066 C   0  0  0  0  0  0  0  0  0  0  0  0
   22.1561   14.0378   11.9789 O   0  0  0  0  0  0  0  0  0  0  0  0
   15.7136   10.0912   12.2949 C   0  0  0  0  0  0  0  0  0  0  0  0
   16.0412   11.0310   13.4214 C   0  0  0  0  0  0  0  0  0  0  0  0
  1  2  1  0
  2  3  2  0
  3  4  1  0
  4  5  2  0
  5  6  1  0
  5  7  1  0
  7  8  1  0
  8  9  1  0
  9 10  2  0
  9 11  1  0
 11 12  1  0
 12 13  1  0
 13 14  1  0
 14 15  1  0
 15 16  1  0
  7 17  2  0
 17 18  1  0
 17  2  1  0
M  END
>  <HIPPO ID>  (277) 
113109

>  <alias>  (277) 
None

>  <ref_mols>  (277) 
c0692a,c1116a

>  <submitter_email>  (277) 
None

>  <ref_pdb>  (277) 
c0270a

>  <inchikey>  (277) 
BLPSQPNWNSRHPO-UHFFFAOYSA-N

>  <generation_date>  (277) 
None

>  <original ID>  (277) 
BLPSQPNWNSRHPO-UHFFFAOYSA-N

>  <tags>  (277) 
[]

>  <exports>  (277) 
nan

>  <method>  (277) 
None

>  <submitter_name>  (277) 
None

>  <original SMILES>  (277) 
Cc1ccc(N)c(NC(=O)COCCCO)c1C

>  <ref_url>  (277) 
None

$$$$
YYHPZTKKDSLSTH-UHFFFAOYSA-N
     RDKit          3D

 18 18  0  0  0  0  0  0  0  0999 V2000
   15.9184   11.1254   13.4302 C   0  0  0  0  0  0  0  0  0  0  0  0
   15.6894   10.1920   12.2849 C   0  0  0  0  0  0  0  0  0  0  0  0
   14.7752    9.1688   12.5143 C   0  0  0  0  0  0  0  0  0  0  0  0
   14.0924    9.2031   13.6596 F   0  0  0  0  0  0  0  0  0  0  0  0
   14.4897    8.1648   11.5975 C   0  0  0  0  0  0  0  0  0  0  0  0
   14.9949    8.2794   10.3251 C   0  0  0  0  0  0  0  0  0  0  0  0
   15.8770    9.3188   10.0345 C   0  0  0  0  0  0  0  0  0  0  0  0
   16.2125    9.4891    8.7018 N   0  0  0  0  0  0  0  0  0  0  0  0
   16.3046   10.2299   11.0328 C   0  0  0  0  0  0  0  0  0  0  0  0
   17.4675   10.9886   10.7461 N   0  0  0  0  0  0  0  0  0  0  0  0
   17.8832   12.1559   11.3398 C   0  0  0  0  0  0  0  0  0  0  0  0
   17.1379   12.9817   11.8655 O   0  0  0  0  0  0  0  0  0  0  0  0
   19.3860   12.4417   11.2526 C   0  0  0  0  0  0  0  0  0  0  0  0
   20.2057   11.2971   11.0523 O   0  0  0  0  0  0  0  0  0  0  0  0
   21.6181   11.6076   11.1313 C   0  0  0  0  0  0  0  0  0  0  0  0
   22.0543   12.1558    9.7965 C   0  0  0  0  0  0  0  0  0  0  0  0
   23.4896   12.5315    9.5431 C   0  0  0  0  0  0  0  0  0  0  0  0
   23.5537   13.0237    8.2017 O   0  0  0  0  0  0  0  0  0  0  0  0
  1  2  1  0
  2  3  2  0
  3  4  1  0
  3  5  1  0
  5  6  2  0
  6  7  1  0
  7  8  1  0
  7  9  2  0
  9 10  1  0
 10 11  1  0
 11 12  2  0
 11 13  1  0
 13 14  1  0
 14 15  1  0
 15 16  1  0
 16 17  1  0
 17 18  1  0
  9  2  1  0
M  END
>  <HIPPO ID>  (278) 
113112

>  <alias>  (278) 
None

>  <ref_mols>  (278) 
c0692a,c1116a

>  <submitter_email>  (278) 
None

>  <ref_pdb>  (278) 
c0270a

>  <inchikey>  (278) 
YYHPZTKKDSLSTH-UHFFFAOYSA-N

>  <generation_date>  (278) 
None

>  <original ID>  (278) 
YYHPZTKKDSLSTH-UHFFFAOYSA-N

>  <tags>  (278) 
[]

>  <exports>  (278) 
nan

>  <method>  (278) 
None

>  <submitter_name>  (278) 
None

>  <original SMILES>  (278) 
Cc1c(F)ccc(N)c1NC(=O)COCCCO

>  <ref_url>  (278) 
None

$$$$
QVDVFHREGMCNMW-UHFFFAOYSA-N
     RDKit          3D

 18 18  0  0  0  0  0  0  0  0999 V2000
   16.2162    9.4527    8.5468 N   0  0  0  0  0  0  0  0  0  0  0  0
   15.7684    9.3916    9.8575 C   0  0  0  0  0  0  0  0  0  0  0  0
   14.8906    8.3678   10.1920 C   0  0  0  0  0  0  0  0  0  0  0  0
   14.4674    8.2424   11.4988 C   0  0  0  0  0  0  0  0  0  0  0  0
   13.5662    7.2889   11.7776 F   0  0  0  0  0  0  0  0  0  0  0  0
   14.8923    9.1564   12.4612 C   0  0  0  0  0  0  0  0  0  0  0  0
   14.2920    9.1776   14.2343 Br  0  0  0  0  0  0  0  0  0  0  0  0
   15.8018   10.1451   12.1433 C   0  0  0  0  0  0  0  0  0  0  0  0
   16.3008   10.2187   10.8571 C   0  0  0  0  0  0  0  0  0  0  0  0
   17.4150   11.0235   10.5781 N   0  0  0  0  0  0  0  0  0  0  0  0
   17.8524   12.0725   11.3582 C   0  0  0  0  0  0  0  0  0  0  0  0
   17.1512   12.6937   12.1568 O   0  0  0  0  0  0  0  0  0  0  0  0
   19.3062   12.4564   11.1449 C   0  0  0  0  0  0  0  0  0  0  0  0
   20.0928   11.3299   10.7874 O   0  0  0  0  0  0  0  0  0  0  0  0
   21.4565   11.6660   10.5269 C   0  0  0  0  0  0  0  0  0  0  0  0
   22.3392   11.6852   11.7698 C   0  0  0  0  0  0  0  0  0  0  0  0
   22.1081   12.8410   12.7326 C   0  0  0  0  0  0  0  0  0  0  0  0
   21.9259   14.0572   12.0200 O   0  0  0  0  0  0  0  0  0  0  0  0
  1  2  1  0
  2  3  2  0
  3  4  1  0
  4  5  1  0
  4  6  2  0
  6  7  1  0
  6  8  1  0
  8  9  2  0
  9 10  1  0
 10 11  1  0
 11 12  2  0
 11 13  1  0
 13 14  1  0
 14 15  1  0
 15 16  1  0
 16 17  1  0
 17 18  1  0
  9  2  1  0
M  END
>  <HIPPO ID>  (279) 
113121

>  <alias>  (279) 
None

>  <ref_mols>  (279) 
c0692a,c1116a

>  <submitter_email>  (279) 
None

>  <ref_pdb>  (279) 
c0270a

>  <inchikey>  (279) 
QVDVFHREGMCNMW-UHFFFAOYSA-N

>  <generation_date>  (279) 
None

>  <original ID>  (279) 
QVDVFHREGMCNMW-UHFFFAOYSA-N

>  <tags>  (279) 
[]

>  <exports>  (279) 
nan

>  <method>  (279) 
None

>  <submitter_name>  (279) 
None

>  <original SMILES>  (279) 
Nc1cc(F)c(Br)cc1NC(=O)COCCCO

>  <ref_url>  (279) 
None

$$$$
WURNFJPHDVISJK-UHFFFAOYSA-N
     RDKit          3D

 18 18  0  0  0  0  0  0  0  0999 V2000
   16.4560    9.2843    8.7339 C   0  0  0  0  0  0  0  0  0  0  0  0
   15.3132   10.1106    9.0486 N   0  0  0  0  0  0  0  0  0  0  0  0
   15.0978    9.7905   10.4200 C   0  0  0  0  0  0  0  0  0  0  0  0
   14.5197    8.5534   10.7461 C   0  0  0  0  0  0  0  0  0  0  0  0
   14.4243    8.1765   12.0727 C   0  0  0  0  0  0  0  0  0  0  0  0
   14.7841    9.1039   13.0443 C   0  0  0  0  0  0  0  0  0  0  0  0
   14.2898    8.8738   14.8228 Br  0  0  0  0  0  0  0  0  0  0  0  0
   15.4427   10.2793   12.7409 C   0  0  0  0  0  0  0  0  0  0  0  0
   15.7051   10.5674   11.4229 C   0  0  0  0  0  0  0  0  0  0  0  0
   16.6982   11.4925   11.0595 N   0  0  0  0  0  0  0  0  0  0  0  0
   17.4329   12.2644   11.9315 C   0  0  0  0  0  0  0  0  0  0  0  0
   17.0275   12.7135   13.0004 O   0  0  0  0  0  0  0  0  0  0  0  0
   18.8490   12.5322   11.4711 C   0  0  0  0  0  0  0  0  0  0  0  0
   19.3740   11.3095   10.9714 O   0  0  0  0  0  0  0  0  0  0  0  0
   20.6469   11.4875   10.3887 C   0  0  0  0  0  0  0  0  0  0  0  0
   21.7867   11.2639   11.3483 C   0  0  0  0  0  0  0  0  0  0  0  0
   23.0549   11.6863   10.6583 C   0  0  0  0  0  0  0  0  0  0  0  0
   23.1483   10.9543    9.4612 O   0  0  0  0  0  0  0  0  0  0  0  0
  1  2  1  0
  2  3  1  0
  3  4  2  0
  4  5  1  0
  5  6  2  0
  6  7  1  0
  6  8  1  0
  8  9  2  0
  9 10  1  0
 10 11  1  0
 11 12  2  0
 11 13  1  0
 13 14  1  0
 14 15  1  0
 15 16  1  0
 16 17  1  0
 17 18  1  0
  9  3  1  0
M  END
>  <HIPPO ID>  (280) 
113133

>  <alias>  (280) 
None

>  <ref_mols>  (280) 
c0692a,c1116a

>  <submitter_email>  (280) 
None

>  <ref_pdb>  (280) 
c0270a

>  <inchikey>  (280) 
WURNFJPHDVISJK-UHFFFAOYSA-N

>  <generation_date>  (280) 
None

>  <original ID>  (280) 
WURNFJPHDVISJK-UHFFFAOYSA-N

>  <tags>  (280) 
[]

>  <exports>  (280) 
nan

>  <method>  (280) 
None

>  <submitter_name>  (280) 
None

>  <original SMILES>  (280) 
CNc1ccc(Br)cc1NC(=O)COCCCO

>  <ref_url>  (280) 
None

$$$$
QJSMTPVFHFDWME-UHFFFAOYSA-N
     RDKit          3D

 18 18  0  0  0  0  0  0  0  0999 V2000
   16.3631    9.3401    8.7813 N   0  0  0  0  0  0  0  0  0  0  0  0
   15.8054    9.3377   10.0380 C   0  0  0  0  0  0  0  0  0  0  0  0
   14.9699    8.2718   10.3660 C   0  0  0  0  0  0  0  0  0  0  0  0
   14.5130    8.1209   11.6617 C   0  0  0  0  0  0  0  0  0  0  0  0
   13.4733    6.5671   12.0053 Br  0  0  0  0  0  0  0  0  0  0  0  0
   14.8194    9.1090   12.6021 C   0  0  0  0  0  0  0  0  0  0  0  0
   14.2082    9.1587   14.1974 Cl  0  0  0  0  0  0  0  0  0  0  0  0
   15.6621   10.1655   12.2820 C   0  0  0  0  0  0  0  0  0  0  0  0
   16.2333   10.2303   11.0259 C   0  0  0  0  0  0  0  0  0  0  0  0
   17.3311   11.0693   10.7598 N   0  0  0  0  0  0  0  0  0  0  0  0
   17.7660   12.1081   11.5513 C   0  0  0  0  0  0  0  0  0  0  0  0
   17.0893   12.6846   12.4012 O   0  0  0  0  0  0  0  0  0  0  0  0
   19.2015   12.5468   11.2976 C   0  0  0  0  0  0  0  0  0  0  0  0
   19.9286   11.6329   10.4957 O   0  0  0  0  0  0  0  0  0  0  0  0
   21.3509   11.7546   10.6474 C   0  0  0  0  0  0  0  0  0  0  0  0
   21.8476   13.1807   10.3863 C   0  0  0  0  0  0  0  0  0  0  0  0
   23.3547   13.2655   10.2522 C   0  0  0  0  0  0  0  0  0  0  0  0
   23.8388   12.3493    9.2982 O   0  0  0  0  0  0  0  0  0  0  0  0
  1  2  1  0
  2  3  2  0
  3  4  1  0
  4  5  1  0
  4  6  2  0
  6  7  1  0
  6  8  1  0
  8  9  2  0
  9 10  1  0
 10 11  1  0
 11 12  2  0
 11 13  1  0
 13 14  1  0
 14 15  1  0
 15 16  1  0
 16 17  1  0
 17 18  1  0
  9  2  1  0
M  END
>  <HIPPO ID>  (281) 
113147

>  <alias>  (281) 
None

>  <ref_mols>  (281) 
c0692a,c1116a

>  <submitter_email>  (281) 
None

>  <ref_pdb>  (281) 
c0270a

>  <inchikey>  (281) 
QJSMTPVFHFDWME-UHFFFAOYSA-N

>  <generation_date>  (281) 
None

>  <original ID>  (281) 
QJSMTPVFHFDWME-UHFFFAOYSA-N

>  <tags>  (281) 
[]

>  <exports>  (281) 
nan

>  <method>  (281) 
None

>  <submitter_name>  (281) 
None

>  <original SMILES>  (281) 
Nc1cc(Br)c(Cl)cc1NC(=O)COCCCO

>  <ref_url>  (281) 
None

$$$$
QFCCLXCATYGMOF-UHFFFAOYSA-N
     RDKit          3D

 18 18  0  0  0  0  0  0  0  0999 V2000
   16.2837    9.4825    8.5893 N   0  0  0  0  0  0  0  0  0  0  0  0
   15.8073    9.3782    9.8874 C   0  0  0  0  0  0  0  0  0  0  0  0
   14.9593    8.3018   10.1519 C   0  0  0  0  0  0  0  0  0  0  0  0
   14.5136    8.0541   11.4381 C   0  0  0  0  0  0  0  0  0  0  0  0
   13.5027    6.6734   11.6644 Cl  0  0  0  0  0  0  0  0  0  0  0  0
   14.8815    8.9354   12.4533 C   0  0  0  0  0  0  0  0  0  0  0  0
   14.2847    8.8636   14.2325 Br  0  0  0  0  0  0  0  0  0  0  0  0
   15.7488    9.9891   12.2000 C   0  0  0  0  0  0  0  0  0  0  0  0
   16.2746   10.1834   10.9332 C   0  0  0  0  0  0  0  0  0  0  0  0
   17.3288   11.1038   10.7379 N   0  0  0  0  0  0  0  0  0  0  0  0
   17.6022   12.1590   11.5839 C   0  0  0  0  0  0  0  0  0  0  0  0
   16.8304   12.5936   12.4407 O   0  0  0  0  0  0  0  0  0  0  0  0
   18.9614   12.8246   11.4419 C   0  0  0  0  0  0  0  0  0  0  0  0
   19.8269   12.3545   10.4364 O   0  0  0  0  0  0  0  0  0  0  0  0
   21.0421   13.1203   10.4434 C   0  0  0  0  0  0  0  0  0  0  0  0
   22.2354   12.2099   10.2692 C   0  0  0  0  0  0  0  0  0  0  0  0
   22.1807   11.1385   11.3304 C   0  0  0  0  0  0  0  0  0  0  0  0
   21.9573    9.9259   10.6712 O   0  0  0  0  0  0  0  0  0  0  0  0
  1  2  1  0
  2  3  2  0
  3  4  1  0
  4  5  1  0
  4  6  2  0
  6  7  1  0
  6  8  1  0
  8  9  2  0
  9 10  1  0
 10 11  1  0
 11 12  2  0
 11 13  1  0
 13 14  1  0
 14 15  1  0
 15 16  1  0
 16 17  1  0
 17 18  1  0
  9  2  1  0
M  END
>  <HIPPO ID>  (282) 
113148

>  <alias>  (282) 
None

>  <ref_mols>  (282) 
c0692a,c1116a

>  <submitter_email>  (282) 
None

>  <ref_pdb>  (282) 
c0270a

>  <inchikey>  (282) 
QFCCLXCATYGMOF-UHFFFAOYSA-N

>  <generation_date>  (282) 
None

>  <original ID>  (282) 
QFCCLXCATYGMOF-UHFFFAOYSA-N

>  <tags>  (282) 
[]

>  <exports>  (282) 
nan

>  <method>  (282) 
None

>  <submitter_name>  (282) 
None

>  <original SMILES>  (282) 
Nc1cc(Cl)c(Br)cc1NC(=O)COCCCO

>  <ref_url>  (282) 
None

$$$$
USOHVYQEEYZVBY-UHFFFAOYSA-N
     RDKit          3D

 18 18  0  0  0  0  0  0  0  0999 V2000
   16.1008   10.8879   13.3473 N   0  0  0  0  0  0  0  0  0  0  0  0
   15.7926   10.1788   12.1478 C   0  0  0  0  0  0  0  0  0  0  0  0
   16.5021   10.4028   10.9543 C   0  0  0  0  0  0  0  0  0  0  0  0
   17.6012   11.2927   10.8645 N   0  0  0  0  0  0  0  0  0  0  0  0
   17.7339   12.4733   11.5605 C   0  0  0  0  0  0  0  0  0  0  0  0
   16.8102   13.0388   12.1523 O   0  0  0  0  0  0  0  0  0  0  0  0
   19.1348   13.0712   11.6170 C   0  0  0  0  0  0  0  0  0  0  0  0
   19.8836   12.9643   10.4288 O   0  0  0  0  0  0  0  0  0  0  0  0
   21.2906   13.0320   10.6664 C   0  0  0  0  0  0  0  0  0  0  0  0
   21.8476   11.6867   11.0908 C   0  0  0  0  0  0  0  0  0  0  0  0
   21.6061   10.6404   10.0373 C   0  0  0  0  0  0  0  0  0  0  0  0
   20.2239   10.4649    9.7649 O   0  0  0  0  0  0  0  0  0  0  0  0
   16.2029    9.6162    9.8397 C   0  0  0  0  0  0  0  0  0  0  0  0
   15.2607    8.5927    9.8957 C   0  0  0  0  0  0  0  0  0  0  0  0
   14.7039    8.2352   11.1113 C   0  0  0  0  0  0  0  0  0  0  0  0
   13.5981    6.4406   11.1245 I   0  0  0  0  0  0  0  0  0  0  0  0
   14.9703    9.0324   12.2311 C   0  0  0  0  0  0  0  0  0  0  0  0
   14.3344    8.6927   13.7968 Cl  0  0  0  0  0  0  0  0  0  0  0  0
  1  2  1  0
  2  3  2  0
  3  4  1  0
  4  5  1  0
  5  6  2  0
  5  7  1  0
  7  8  1  0
  8  9  1  0
  9 10  1  0
 10 11  1  0
 11 12  1  0
  3 13  1  0
 13 14  2  0
 14 15  1  0
 15 16  1  0
 15 17  2  0
 17 18  1  0
 17  2  1  0
M  END
>  <HIPPO ID>  (283) 
113150

>  <alias>  (283) 
None

>  <ref_mols>  (283) 
c0692a,c1116a

>  <submitter_email>  (283) 
None

>  <ref_pdb>  (283) 
c0270a

>  <inchikey>  (283) 
USOHVYQEEYZVBY-UHFFFAOYSA-N

>  <generation_date>  (283) 
None

>  <original ID>  (283) 
USOHVYQEEYZVBY-UHFFFAOYSA-N

>  <tags>  (283) 
[]

>  <exports>  (283) 
nan

>  <method>  (283) 
None

>  <submitter_name>  (283) 
None

>  <original SMILES>  (283) 
Nc1c(NC(=O)COCCCO)ccc(I)c1Cl

>  <ref_url>  (283) 
None

$$$$
CFZIKJBQGAETGY-UHFFFAOYSA-N
     RDKit          3D

 18 18  0  0  0  0  0  0  0  0999 V2000
   16.1922   10.7902   13.1450 N   0  0  0  0  0  0  0  0  0  0  0  0
   15.7350   10.0498   12.0214 C   0  0  0  0  0  0  0  0  0  0  0  0
   16.3188   10.1623   10.7473 C   0  0  0  0  0  0  0  0  0  0  0  0
   17.4556   10.9446   10.5078 N   0  0  0  0  0  0  0  0  0  0  0  0
   17.8103   12.0813   11.1848 C   0  0  0  0  0  0  0  0  0  0  0  0
   17.0293   12.8054   11.8083 O   0  0  0  0  0  0  0  0  0  0  0  0
   19.2827   12.4091   11.1365 C   0  0  0  0  0  0  0  0  0  0  0  0
   20.1050   11.4405   10.5127 O   0  0  0  0  0  0  0  0  0  0  0  0
   21.4841   11.8341   10.5013 C   0  0  0  0  0  0  0  0  0  0  0  0
   22.1229   11.9031   11.8870 C   0  0  0  0  0  0  0  0  0  0  0  0
   22.2479   13.3161   12.4569 C   0  0  0  0  0  0  0  0  0  0  0  0
   20.9972   13.9481   12.6642 O   0  0  0  0  0  0  0  0  0  0  0  0
   15.8713    9.3658    9.6846 C   0  0  0  0  0  0  0  0  0  0  0  0
   14.8834    8.4126    9.8844 C   0  0  0  0  0  0  0  0  0  0  0  0
   14.4318    8.1792   11.1674 C   0  0  0  0  0  0  0  0  0  0  0  0
   13.5092    7.2219   11.3483 F   0  0  0  0  0  0  0  0  0  0  0  0
   14.8707    8.9733   12.2288 C   0  0  0  0  0  0  0  0  0  0  0  0
   14.3000    8.6584   14.0024 Br  0  0  0  0  0  0  0  0  0  0  0  0
  1  2  1  0
  2  3  2  0
  3  4  1  0
  4  5  1  0
  5  6  2  0
  5  7  1  0
  7  8  1  0
  8  9  1  0
  9 10  1  0
 10 11  1  0
 11 12  1  0
  3 13  1  0
 13 14  2  0
 14 15  1  0
 15 16  1  0
 15 17  2  0
 17 18  1  0
 17  2  1  0
M  END
>  <HIPPO ID>  (284) 
113152

>  <alias>  (284) 
None

>  <ref_mols>  (284) 
c0692a,c1116a

>  <submitter_email>  (284) 
None

>  <ref_pdb>  (284) 
c0270a

>  <inchikey>  (284) 
CFZIKJBQGAETGY-UHFFFAOYSA-N

>  <generation_date>  (284) 
None

>  <original ID>  (284) 
CFZIKJBQGAETGY-UHFFFAOYSA-N

>  <tags>  (284) 
[]

>  <exports>  (284) 
nan

>  <method>  (284) 
None

>  <submitter_name>  (284) 
None

>  <original SMILES>  (284) 
Nc1c(NC(=O)COCCCO)ccc(F)c1Br

>  <ref_url>  (284) 
None

$$$$
IEHPOAOAFBPXES-UHFFFAOYSA-N
     RDKit          3D

 18 18  0  0  0  0  0  0  0  0999 V2000
   16.3744    9.4932    8.7084 N   0  0  0  0  0  0  0  0  0  0  0  0
   15.8859    9.4160   10.0092 C   0  0  0  0  0  0  0  0  0  0  0  0
   15.0217    8.3472   10.2564 C   0  0  0  0  0  0  0  0  0  0  0  0
   14.4902    8.1773   11.5117 C   0  0  0  0  0  0  0  0  0  0  0  0
   14.7711    9.1301   12.4805 C   0  0  0  0  0  0  0  0  0  0  0  0
   14.1005    9.0832   13.6325 F   0  0  0  0  0  0  0  0  0  0  0  0
   15.6851   10.1580   12.2929 C   0  0  0  0  0  0  0  0  0  0  0  0
   16.0644   11.1402   13.8757 Br  0  0  0  0  0  0  0  0  0  0  0  0
   16.3181   10.2719   11.0525 C   0  0  0  0  0  0  0  0  0  0  0  0
   17.4502   11.0957   10.8244 N   0  0  0  0  0  0  0  0  0  0  0  0
   17.6475   12.3482   11.3686 C   0  0  0  0  0  0  0  0  0  0  0  0
   16.7394   13.0739   11.7747 O   0  0  0  0  0  0  0  0  0  0  0  0
   19.0768   12.8738   11.3394 C   0  0  0  0  0  0  0  0  0  0  0  0
   19.9889   11.8769   11.7192 O   0  0  0  0  0  0  0  0  0  0  0  0
   21.3312   12.3273   11.7973 C   0  0  0  0  0  0  0  0  0  0  0  0
   22.0125   12.2006   10.4568 C   0  0  0  0  0  0  0  0  0  0  0  0
   21.8465   10.8019    9.9196 C   0  0  0  0  0  0  0  0  0  0  0  0
   20.4890   10.5135    9.5990 O   0  0  0  0  0  0  0  0  0  0  0  0
  1  2  1  0
  2  3  2  0
  3  4  1  0
  4  5  2  0
  5  6  1  0
  5  7  1  0
  7  8  1  0
  7  9  2  0
  9 10  1  0
 10 11  1  0
 11 12  2  0
 11 13  1  0
 13 14  1  0
 14 15  1  0
 15 16  1  0
 16 17  1  0
 17 18  1  0
  9  2  1  0
M  END
>  <HIPPO ID>  (285) 
113153

>  <alias>  (285) 
None

>  <ref_mols>  (285) 
c0692a,c1116a

>  <submitter_email>  (285) 
None

>  <ref_pdb>  (285) 
c0270a

>  <inchikey>  (285) 
IEHPOAOAFBPXES-UHFFFAOYSA-N

>  <generation_date>  (285) 
None

>  <original ID>  (285) 
IEHPOAOAFBPXES-UHFFFAOYSA-N

>  <tags>  (285) 
[]

>  <exports>  (285) 
nan

>  <method>  (285) 
None

>  <submitter_name>  (285) 
None

>  <original SMILES>  (285) 
Nc1ccc(F)c(Br)c1NC(=O)COCCCO

>  <ref_url>  (285) 
None

$$$$
SCLBQJOGLVIQLI-UHFFFAOYSA-N
     RDKit          3D

 18 18  0  0  0  0  0  0  0  0999 V2000
   16.2549    9.4539    8.5563 N   0  0  0  0  0  0  0  0  0  0  0  0
   15.7834    9.3621    9.8581 C   0  0  0  0  0  0  0  0  0  0  0  0
   14.9545    8.2827   10.1541 C   0  0  0  0  0  0  0  0  0  0  0  0
   14.5337    8.0574   11.4549 C   0  0  0  0  0  0  0  0  0  0  0  0
   13.4213    6.3010   11.7626 I   0  0  0  0  0  0  0  0  0  0  0  0
   14.8761    8.9908   12.4378 C   0  0  0  0  0  0  0  0  0  0  0  0
   14.3114    8.9788   14.0523 Cl  0  0  0  0  0  0  0  0  0  0  0  0
   15.7322   10.0488   12.1503 C   0  0  0  0  0  0  0  0  0  0  0  0
   16.2686   10.1822   10.8833 C   0  0  0  0  0  0  0  0  0  0  0  0
   17.3662   11.0291   10.6340 N   0  0  0  0  0  0  0  0  0  0  0  0
   17.8361   12.0219   11.4675 C   0  0  0  0  0  0  0  0  0  0  0  0
   17.2016   12.5296   12.3913 O   0  0  0  0  0  0  0  0  0  0  0  0
   19.2517   12.5060   11.1579 C   0  0  0  0  0  0  0  0  0  0  0  0
   20.0098   11.5874   10.3855 O   0  0  0  0  0  0  0  0  0  0  0  0
   21.4112   11.6367   10.6574 C   0  0  0  0  0  0  0  0  0  0  0  0
   22.2287   12.6697    9.8685 C   0  0  0  0  0  0  0  0  0  0  0  0
   21.7369   14.1143    9.8944 C   0  0  0  0  0  0  0  0  0  0  0  0
   20.8743   14.4552    8.8103 O   0  0  0  0  0  0  0  0  0  0  0  0
  1  2  1  0
  2  3  2  0
  3  4  1  0
  4  5  1  0
  4  6  2  0
  6  7  1  0
  6  8  1  0
  8  9  2  0
  9 10  1  0
 10 11  1  0
 11 12  2  0
 11 13  1  0
 13 14  1  0
 14 15  1  0
 15 16  1  0
 16 17  1  0
 17 18  1  0
  9  2  1  0
M  END
>  <HIPPO ID>  (286) 
113155

>  <alias>  (286) 
None

>  <ref_mols>  (286) 
c0692a,c1116a

>  <submitter_email>  (286) 
None

>  <ref_pdb>  (286) 
c0270a

>  <inchikey>  (286) 
SCLBQJOGLVIQLI-UHFFFAOYSA-N

>  <generation_date>  (286) 
None

>  <original ID>  (286) 
SCLBQJOGLVIQLI-UHFFFAOYSA-N

>  <tags>  (286) 
[]

>  <exports>  (286) 
nan

>  <method>  (286) 
None

>  <submitter_name>  (286) 
None

>  <original SMILES>  (286) 
Nc1cc(I)c(Cl)cc1NC(=O)COCCCO

>  <ref_url>  (286) 
None

$$$$
OBWGOVKGJVZTPP-UHFFFAOYSA-N
     RDKit          3D

 18 18  0  0  0  0  0  0  0  0999 V2000
   16.2546    9.3112    8.8242 N   0  0  0  0  0  0  0  0  0  0  0  0
   15.7449    9.3072   10.1123 C   0  0  0  0  0  0  0  0  0  0  0  0
   14.9052    8.2509   10.4584 C   0  0  0  0  0  0  0  0  0  0  0  0
   14.5058    8.0958   11.7688 C   0  0  0  0  0  0  0  0  0  0  0  0
   14.8764    9.0511   12.7191 C   0  0  0  0  0  0  0  0  0  0  0  0
   14.1635    8.7728   14.6436 I   0  0  0  0  0  0  0  0  0  0  0  0
   15.7219   10.1192   12.3978 C   0  0  0  0  0  0  0  0  0  0  0  0
   16.2483   11.1702   13.6749 Cl  0  0  0  0  0  0  0  0  0  0  0  0
   16.2346   10.1887   11.0952 C   0  0  0  0  0  0  0  0  0  0  0  0
   17.3678   10.9479   10.7315 N   0  0  0  0  0  0  0  0  0  0  0  0
   17.7485   12.1634   11.2375 C   0  0  0  0  0  0  0  0  0  0  0  0
   16.9787   13.0040   11.6998 O   0  0  0  0  0  0  0  0  0  0  0  0
   19.2401   12.4394   11.1551 C   0  0  0  0  0  0  0  0  0  0  0  0
   19.9992   11.3481   10.6617 O   0  0  0  0  0  0  0  0  0  0  0  0
   21.3771   11.6699   10.4587 C   0  0  0  0  0  0  0  0  0  0  0  0
   22.2379   11.5828   11.7135 C   0  0  0  0  0  0  0  0  0  0  0  0
   22.4017   12.9047   12.4437 C   0  0  0  0  0  0  0  0  0  0  0  0
   21.2711   13.2155   13.2268 O   0  0  0  0  0  0  0  0  0  0  0  0
  1  2  1  0
  2  3  2  0
  3  4  1  0
  4  5  2  0
  5  6  1  0
  5  7  1  0
  7  8  1  0
  7  9  2  0
  9 10  1  0
 10 11  1  0
 11 12  2  0
 11 13  1  0
 13 14  1  0
 14 15  1  0
 15 16  1  0
 16 17  1  0
 17 18  1  0
  9  2  1  0
M  END
>  <HIPPO ID>  (287) 
113162

>  <alias>  (287) 
None

>  <ref_mols>  (287) 
c0692a,c1116a

>  <submitter_email>  (287) 
None

>  <ref_pdb>  (287) 
c0270a

>  <inchikey>  (287) 
OBWGOVKGJVZTPP-UHFFFAOYSA-N

>  <generation_date>  (287) 
None

>  <original ID>  (287) 
OBWGOVKGJVZTPP-UHFFFAOYSA-N

>  <tags>  (287) 
[]

>  <exports>  (287) 
nan

>  <method>  (287) 
None

>  <submitter_name>  (287) 
None

>  <original SMILES>  (287) 
Nc1ccc(I)c(Cl)c1NC(=O)COCCCO

>  <ref_url>  (287) 
None

$$$$
QDJKIJNKNRMHIG-UHFFFAOYSA-N
     RDKit          3D

 18 18  0  0  0  0  0  0  0  0999 V2000
   15.9189   11.0207   13.4000 C   0  0  0  0  0  0  0  0  0  0  0  0
   15.6638   10.1256   12.2291 C   0  0  0  0  0  0  0  0  0  0  0  0
   14.7625    9.0900   12.4431 C   0  0  0  0  0  0  0  0  0  0  0  0
   14.1149    9.0734   13.6085 F   0  0  0  0  0  0  0  0  0  0  0  0
   14.4620    8.1192   11.4957 C   0  0  0  0  0  0  0  0  0  0  0  0
   14.9438    8.2794   10.2176 C   0  0  0  0  0  0  0  0  0  0  0  0
   15.7813    9.3543    9.9337 C   0  0  0  0  0  0  0  0  0  0  0  0
   16.2565    9.4485    8.6287 N   0  0  0  0  0  0  0  0  0  0  0  0
   16.2479   10.2053   10.9649 C   0  0  0  0  0  0  0  0  0  0  0  0
   17.3906   10.9780   10.6722 N   0  0  0  0  0  0  0  0  0  0  0  0
   17.8210   12.1250   11.2910 C   0  0  0  0  0  0  0  0  0  0  0  0
   17.1000   12.9329   11.8734 O   0  0  0  0  0  0  0  0  0  0  0  0
   19.3109   12.4041   11.1412 C   0  0  0  0  0  0  0  0  0  0  0  0
   20.0870   11.2386   10.9341 O   0  0  0  0  0  0  0  0  0  0  0  0
   21.4674   11.4639   10.6234 C   0  0  0  0  0  0  0  0  0  0  0  0
   22.0853   12.7507   11.1820 C   0  0  0  0  0  0  0  0  0  0  0  0
   23.5056   12.9733   10.6992 C   0  0  0  0  0  0  0  0  0  0  0  0
   23.5014   13.6043    8.8590 Br  0  0  0  0  0  0  0  0  0  0  0  0
  1  2  1  0
  2  3  2  0
  3  4  1  0
  3  5  1  0
  5  6  2  0
  6  7  1  0
  7  8  1  0
  7  9  2  0
  9 10  1  0
 10 11  1  0
 11 12  2  0
 11 13  1  0
 13 14  1  0
 14 15  1  0
 15 16  1  0
 16 17  1  0
 17 18  1  0
  9  2  1  0
M  END
>  <HIPPO ID>  (288) 
113164

>  <alias>  (288) 
None

>  <ref_mols>  (288) 
c0692a,c1116a

>  <submitter_email>  (288) 
None

>  <ref_pdb>  (288) 
c0270a

>  <inchikey>  (288) 
QDJKIJNKNRMHIG-UHFFFAOYSA-N

>  <generation_date>  (288) 
None

>  <original ID>  (288) 
QDJKIJNKNRMHIG-UHFFFAOYSA-N

>  <tags>  (288) 
[]

>  <exports>  (288) 
nan

>  <method>  (288) 
None

>  <submitter_name>  (288) 
None

>  <original SMILES>  (288) 
Cc1c(F)ccc(N)c1NC(=O)COCCCBr

>  <ref_url>  (288) 
None

$$$$
ANDGGHIWPUSVJQ-UHFFFAOYSA-N
     RDKit          3D

 18 18  0  0  0  0  0  0  0  0999 V2000
   16.1933    9.4948    8.6183 N   0  0  0  0  0  0  0  0  0  0  0  0
   15.7045    9.3975    9.9141 C   0  0  0  0  0  0  0  0  0  0  0  0
   14.8576    8.3292   10.1941 C   0  0  0  0  0  0  0  0  0  0  0  0
   14.4216    8.1276   11.4879 C   0  0  0  0  0  0  0  0  0  0  0  0
   13.5253    7.1546   11.7080 F   0  0  0  0  0  0  0  0  0  0  0  0
   14.8216    8.9943   12.5014 C   0  0  0  0  0  0  0  0  0  0  0  0
   14.2283    8.8886   14.2740 Br  0  0  0  0  0  0  0  0  0  0  0  0
   15.6827   10.0393   12.2384 C   0  0  0  0  0  0  0  0  0  0  0  0
   16.1733   10.2130   10.9589 C   0  0  0  0  0  0  0  0  0  0  0  0
   17.2094   11.1222   10.7247 N   0  0  0  0  0  0  0  0  0  0  0  0
   17.6672   12.0992   11.5928 C   0  0  0  0  0  0  0  0  0  0  0  0
   17.0648   12.5490   12.5632 O   0  0  0  0  0  0  0  0  0  0  0  0
   19.0572   12.5978   11.2506 C   0  0  0  0  0  0  0  0  0  0  0  0
   19.5306   11.8192   10.1647 O   0  0  0  0  0  0  0  0  0  0  0  0
   20.7933   11.2358   10.3804 C   0  0  0  0  0  0  0  0  0  0  0  0
   21.8823   12.2844   10.2985 C   0  0  0  0  0  0  0  0  0  0  0  0
   23.1984   11.6353   10.5559 C   0  0  0  0  0  0  0  0  0  0  0  0
   23.2418   11.1479   12.4396 Br  0  0  0  0  0  0  0  0  0  0  0  0
  1  2  1  0
  2  3  2  0
  3  4  1  0
  4  5  1  0
  4  6  2  0
  6  7  1  0
  6  8  1  0
  8  9  2  0
  9 10  1  0
 10 11  1  0
 11 12  2  0
 11 13  1  0
 13 14  1  0
 14 15  1  0
 15 16  1  0
 16 17  1  0
 17 18  1  0
  9  2  1  0
M  END
>  <HIPPO ID>  (289) 
113168

>  <alias>  (289) 
None

>  <ref_mols>  (289) 
c0692a,c1116a

>  <submitter_email>  (289) 
None

>  <ref_pdb>  (289) 
c0270a

>  <inchikey>  (289) 
ANDGGHIWPUSVJQ-UHFFFAOYSA-N

>  <generation_date>  (289) 
None

>  <original ID>  (289) 
ANDGGHIWPUSVJQ-UHFFFAOYSA-N

>  <tags>  (289) 
[]

>  <exports>  (289) 
nan

>  <method>  (289) 
None

>  <submitter_name>  (289) 
None

>  <original SMILES>  (289) 
Nc1cc(F)c(Br)cc1NC(=O)COCCCBr

>  <ref_url>  (289) 
None

$$$$
LWXHMMWLUMVTCE-UHFFFAOYSA-N
     RDKit          3D

 18 18  0  0  0  0  0  0  0  0999 V2000
   16.2823    9.4895    8.5951 N   0  0  0  0  0  0  0  0  0  0  0  0
   15.8088    9.3944    9.8948 C   0  0  0  0  0  0  0  0  0  0  0  0
   14.9676    8.3150   10.1678 C   0  0  0  0  0  0  0  0  0  0  0  0
   14.5236    8.0760   11.4560 C   0  0  0  0  0  0  0  0  0  0  0  0
   13.5218    6.6904   11.6928 Cl  0  0  0  0  0  0  0  0  0  0  0  0
   14.8857    8.9690   12.4637 C   0  0  0  0  0  0  0  0  0  0  0  0
   14.2878    8.9077   14.2426 Br  0  0  0  0  0  0  0  0  0  0  0  0
   15.7477   10.0257   12.2025 C   0  0  0  0  0  0  0  0  0  0  0  0
   16.2735   10.2101   10.9348 C   0  0  0  0  0  0  0  0  0  0  0  0
   17.3287   11.1273   10.7324 N   0  0  0  0  0  0  0  0  0  0  0  0
   17.6172   12.1862   11.5730 C   0  0  0  0  0  0  0  0  0  0  0  0
   16.8506   12.6368   12.4248 O   0  0  0  0  0  0  0  0  0  0  0  0
   18.9934   12.8206   11.4249 C   0  0  0  0  0  0  0  0  0  0  0  0
   19.8417   12.2369   10.4631 O   0  0  0  0  0  0  0  0  0  0  0  0
   21.1508   12.8311   10.5251 C   0  0  0  0  0  0  0  0  0  0  0  0
   22.1652   11.7480   10.2434 C   0  0  0  0  0  0  0  0  0  0  0  0
   21.9781   10.6332   11.2286 C   0  0  0  0  0  0  0  0  0  0  0  0
   23.0838   10.9425   12.7769 Br  0  0  0  0  0  0  0  0  0  0  0  0
  1  2  1  0
  2  3  2  0
  3  4  1  0
  4  5  1  0
  4  6  2  0
  6  7  1  0
  6  8  1  0
  8  9  2  0
  9 10  1  0
 10 11  1  0
 11 12  2  0
 11 13  1  0
 13 14  1  0
 14 15  1  0
 15 16  1  0
 16 17  1  0
 17 18  1  0
  9  2  1  0
M  END
>  <HIPPO ID>  (290) 
113195

>  <alias>  (290) 
None

>  <ref_mols>  (290) 
c0692a,c1116a

>  <submitter_email>  (290) 
None

>  <ref_pdb>  (290) 
c0270a

>  <inchikey>  (290) 
LWXHMMWLUMVTCE-UHFFFAOYSA-N

>  <generation_date>  (290) 
None

>  <original ID>  (290) 
LWXHMMWLUMVTCE-UHFFFAOYSA-N

>  <tags>  (290) 
[]

>  <exports>  (290) 
nan

>  <method>  (290) 
None

>  <submitter_name>  (290) 
None

>  <original SMILES>  (290) 
Nc1cc(Cl)c(Br)cc1NC(=O)COCCCBr

>  <ref_url>  (290) 
None

$$$$
JBYRQHFGSSKKRL-UHFFFAOYSA-N
     RDKit          3D

 18 18  0  0  0  0  0  0  0  0999 V2000
   14.2632    8.8823   13.9398 C   0  0  0  0  0  0  0  0  0  0  0  0
   14.8844    9.0568   12.5932 C   0  0  0  0  0  0  0  0  0  0  0  0
   14.5674    8.1546   11.5749 C   0  0  0  0  0  0  0  0  0  0  0  0
   15.0314    8.3785   10.2975 C   0  0  0  0  0  0  0  0  0  0  0  0
   15.8652    9.4641   10.0337 C   0  0  0  0  0  0  0  0  0  0  0  0
   16.3092    9.5599    8.7178 N   0  0  0  0  0  0  0  0  0  0  0  0
   16.3324   10.2931   11.0805 C   0  0  0  0  0  0  0  0  0  0  0  0
   17.4370   11.1679   10.8338 N   0  0  0  0  0  0  0  0  0  0  0  0
   17.5853   12.4190   11.4004 C   0  0  0  0  0  0  0  0  0  0  0  0
   16.6473   13.0754   11.8604 O   0  0  0  0  0  0  0  0  0  0  0  0
   19.0089   12.9906   11.5256 C   0  0  0  0  0  0  0  0  0  0  0  0
   19.8519   13.0653   10.3986 O   0  0  0  0  0  0  0  0  0  0  0  0
   21.1487   13.5799   10.7629 C   0  0  0  0  0  0  0  0  0  0  0  0
   22.2175   13.2443    9.7210 C   0  0  0  0  0  0  0  0  0  0  0  0
   22.6665   11.7954    9.7416 C   0  0  0  0  0  0  0  0  0  0  0  0
   21.1916   10.6025   10.0186 Br  0  0  0  0  0  0  0  0  0  0  0  0
   15.7866   10.1190   12.3708 C   0  0  0  0  0  0  0  0  0  0  0  0
   16.1163   10.9911   13.5519 C   0  0  0  0  0  0  0  0  0  0  0  0
  1  2  1  0
  2  3  2  0
  3  4  1  0
  4  5  2  0
  5  6  1  0
  5  7  1  0
  7  8  1  0
  8  9  1  0
  9 10  2  0
  9 11  1  0
 11 12  1  0
 12 13  1  0
 13 14  1  0
 14 15  1  0
 15 16  1  0
  7 17  2  0
 17 18  1  0
 17  2  1  0
M  END
>  <HIPPO ID>  (291) 
113197

>  <alias>  (291) 
None

>  <ref_mols>  (291) 
c0692a,c1116a

>  <submitter_email>  (291) 
None

>  <ref_pdb>  (291) 
c0270a

>  <inchikey>  (291) 
JBYRQHFGSSKKRL-UHFFFAOYSA-N

>  <generation_date>  (291) 
None

>  <original ID>  (291) 
JBYRQHFGSSKKRL-UHFFFAOYSA-N

>  <tags>  (291) 
[]

>  <exports>  (291) 
nan

>  <method>  (291) 
None

>  <submitter_name>  (291) 
None

>  <original SMILES>  (291) 
Cc1ccc(N)c(NC(=O)COCCCBr)c1C

>  <ref_url>  (291) 
None

$$$$
SVXLUKYVXXRZGS-UHFFFAOYSA-N
     RDKit          3D

 18 18  0  0  0  0  0  0  0  0999 V2000
   15.7457    9.0008    8.5626 C   0  0  0  0  0  0  0  0  0  0  0  0
   15.6407   10.2256    9.2724 N   0  0  0  0  0  0  0  0  0  0  0  0
   15.6104    9.9382   10.6391 C   0  0  0  0  0  0  0  0  0  0  0  0
   14.7983    8.9013   11.1284 C   0  0  0  0  0  0  0  0  0  0  0  0
   14.6411    8.7216   12.4814 C   0  0  0  0  0  0  0  0  0  0  0  0
   15.1267    9.7081   13.3127 C   0  0  0  0  0  0  0  0  0  0  0  0
   14.6276    9.7452   15.0947 Br  0  0  0  0  0  0  0  0  0  0  0  0
   15.9652   10.7112   12.8627 C   0  0  0  0  0  0  0  0  0  0  0  0
   16.2942   10.7584   11.5252 C   0  0  0  0  0  0  0  0  0  0  0  0
   17.3985   11.4864   11.0572 N   0  0  0  0  0  0  0  0  0  0  0  0
   18.0037   12.5008   11.7483 C   0  0  0  0  0  0  0  0  0  0  0  0
   17.4560   13.1779   12.6151 O   0  0  0  0  0  0  0  0  0  0  0  0
   19.4534   12.7492   11.3689 C   0  0  0  0  0  0  0  0  0  0  0  0
   19.9963   11.7787   10.4848 O   0  0  0  0  0  0  0  0  0  0  0  0
   21.4345   11.7475   10.5001 C   0  0  0  0  0  0  0  0  0  0  0  0
   22.0643   13.1336   10.3127 C   0  0  0  0  0  0  0  0  0  0  0  0
   23.5682   13.0737   10.1356 C   0  0  0  0  0  0  0  0  0  0  0  0
   24.0537   13.0449    8.2646 Br  0  0  0  0  0  0  0  0  0  0  0  0
  1  2  1  0
  2  3  1  0
  3  4  2  0
  4  5  1  0
  5  6  2  0
  6  7  1  0
  6  8  1  0
  8  9  2  0
  9 10  1  0
 10 11  1  0
 11 12  2  0
 11 13  1  0
 13 14  1  0
 14 15  1  0
 15 16  1  0
 16 17  1  0
 17 18  1  0
  9  3  1  0
M  END
>  <HIPPO ID>  (292) 
113200

>  <alias>  (292) 
None

>  <ref_mols>  (292) 
c0692a,c1116a

>  <submitter_email>  (292) 
None

>  <ref_pdb>  (292) 
c0270a

>  <inchikey>  (292) 
SVXLUKYVXXRZGS-UHFFFAOYSA-N

>  <generation_date>  (292) 
None

>  <original ID>  (292) 
SVXLUKYVXXRZGS-UHFFFAOYSA-N

>  <tags>  (292) 
[]

>  <exports>  (292) 
nan

>  <method>  (292) 
None

>  <submitter_name>  (292) 
None

>  <original SMILES>  (292) 
CNc1ccc(Br)cc1NC(=O)COCCCBr

>  <ref_url>  (292) 
None

$$$$
ZUSXPQYSPNZFTD-UHFFFAOYSA-N
     RDKit          3D

 18 18  0  0  0  0  0  0  0  0999 V2000
   16.1872    9.4724    8.5500 N   0  0  0  0  0  0  0  0  0  0  0  0
   15.7364    9.3646    9.8576 C   0  0  0  0  0  0  0  0  0  0  0  0
   14.9199    8.2780   10.1578 C   0  0  0  0  0  0  0  0  0  0  0  0
   14.5203    8.0430   11.4638 C   0  0  0  0  0  0  0  0  0  0  0  0
   13.4043    6.2894   11.7741 I   0  0  0  0  0  0  0  0  0  0  0  0
   14.8778    8.9688   12.4497 C   0  0  0  0  0  0  0  0  0  0  0  0
   14.3169    8.9550   14.0652 Cl  0  0  0  0  0  0  0  0  0  0  0  0
   15.7352   10.0254   12.1608 C   0  0  0  0  0  0  0  0  0  0  0  0
   16.2426   10.1712   10.8850 C   0  0  0  0  0  0  0  0  0  0  0  0
   17.3234   11.0275   10.6008 N   0  0  0  0  0  0  0  0  0  0  0  0
   17.8395   12.0132   11.4241 C   0  0  0  0  0  0  0  0  0  0  0  0
   17.2902   12.4473   12.4348 O   0  0  0  0  0  0  0  0  0  0  0  0
   19.1828   12.5751   10.9553 C   0  0  0  0  0  0  0  0  0  0  0  0
   20.2152   12.3755   11.8876 O   0  0  0  0  0  0  0  0  0  0  0  0
   21.3028   13.2930   11.7883 C   0  0  0  0  0  0  0  0  0  0  0  0
   22.1591   13.2085   10.5192 C   0  0  0  0  0  0  0  0  0  0  0  0
   23.0769   12.0129   10.4457 C   0  0  0  0  0  0  0  0  0  0  0  0
   21.9730   10.4671   10.5352 Br  0  0  0  0  0  0  0  0  0  0  0  0
  1  2  1  0
  2  3  2  0
  3  4  1  0
  4  5  1  0
  4  6  2  0
  6  7  1  0
  6  8  1  0
  8  9  2  0
  9 10  1  0
 10 11  1  0
 11 12  2  0
 11 13  1  0
 13 14  1  0
 14 15  1  0
 15 16  1  0
 16 17  1  0
 17 18  1  0
  9  2  1  0
M  END
>  <HIPPO ID>  (293) 
113203

>  <alias>  (293) 
None

>  <ref_mols>  (293) 
c0692a,c1116a

>  <submitter_email>  (293) 
None

>  <ref_pdb>  (293) 
c0270a

>  <inchikey>  (293) 
ZUSXPQYSPNZFTD-UHFFFAOYSA-N

>  <generation_date>  (293) 
None

>  <original ID>  (293) 
ZUSXPQYSPNZFTD-UHFFFAOYSA-N

>  <tags>  (293) 
[]

>  <exports>  (293) 
nan

>  <method>  (293) 
None

>  <submitter_name>  (293) 
None

>  <original SMILES>  (293) 
Nc1cc(I)c(Cl)cc1NC(=O)COCCCBr

>  <ref_url>  (293) 
None

$$$$
KVDOMGKPTJUYAJ-UHFFFAOYSA-N
     RDKit          3D

 18 18  0  0  0  0  0  0  0  0999 V2000
   16.2589   10.8382   13.2075 N   0  0  0  0  0  0  0  0  0  0  0  0
   15.8407   10.1305   12.0455 C   0  0  0  0  0  0  0  0  0  0  0  0
   16.4890   10.2836   10.8098 C   0  0  0  0  0  0  0  0  0  0  0  0
   17.6517   11.0642   10.6219 N   0  0  0  0  0  0  0  0  0  0  0  0
   18.0432   12.1806   11.3273 C   0  0  0  0  0  0  0  0  0  0  0  0
   17.2911   12.8659   12.0243 O   0  0  0  0  0  0  0  0  0  0  0  0
   19.5126   12.5868   11.1481 C   0  0  0  0  0  0  0  0  0  0  0  0
   20.3084   11.5868   10.5315 O   0  0  0  0  0  0  0  0  0  0  0  0
   21.6502   12.0153   10.2450 C   0  0  0  0  0  0  0  0  0  0  0  0
   22.5714   12.1105   11.4553 C   0  0  0  0  0  0  0  0  0  0  0  0
   22.3547   10.9316   12.3525 C   0  0  0  0  0  0  0  0  0  0  0  0
   23.7210   10.7248   13.7042 Br  0  0  0  0  0  0  0  0  0  0  0  0
   16.0718    9.5085    9.7220 C   0  0  0  0  0  0  0  0  0  0  0  0
   15.1113    8.5139    9.8630 C   0  0  0  0  0  0  0  0  0  0  0  0
   14.6330    8.1979   11.1227 C   0  0  0  0  0  0  0  0  0  0  0  0
   13.5343    6.4016   11.2564 I   0  0  0  0  0  0  0  0  0  0  0  0
   14.9723    9.0264   12.2012 C   0  0  0  0  0  0  0  0  0  0  0  0
   14.3678    8.7828   13.7979 Cl  0  0  0  0  0  0  0  0  0  0  0  0
  1  2  1  0
  2  3  2  0
  3  4  1  0
  4  5  1  0
  5  6  2  0
  5  7  1  0
  7  8  1  0
  8  9  1  0
  9 10  1  0
 10 11  1  0
 11 12  1  0
  3 13  1  0
 13 14  2  0
 14 15  1  0
 15 16  1  0
 15 17  2  0
 17 18  1  0
 17  2  1  0
M  END
>  <HIPPO ID>  (294) 
113211

>  <alias>  (294) 
None

>  <ref_mols>  (294) 
c0692a,c1116a

>  <submitter_email>  (294) 
None

>  <ref_pdb>  (294) 
c0270a

>  <inchikey>  (294) 
KVDOMGKPTJUYAJ-UHFFFAOYSA-N

>  <generation_date>  (294) 
None

>  <original ID>  (294) 
KVDOMGKPTJUYAJ-UHFFFAOYSA-N

>  <tags>  (294) 
[]

>  <exports>  (294) 
nan

>  <method>  (294) 
None

>  <submitter_name>  (294) 
None

>  <original SMILES>  (294) 
Nc1c(NC(=O)COCCCBr)ccc(I)c1Cl

>  <ref_url>  (294) 
None

$$$$
UTPHHRKJVOJTAU-UHFFFAOYSA-N
     RDKit          3D

 18 18  0  0  0  0  0  0  0  0999 V2000
   16.1338    9.2969    8.9403 N   0  0  0  0  0  0  0  0  0  0  0  0
   15.5020    9.9766    9.9855 C   0  0  0  0  0  0  0  0  0  0  0  0
   14.2786   10.5656    9.7835 C   0  0  0  0  0  0  0  0  0  0  0  0
   13.8119   11.5092   10.6996 C   0  0  0  0  0  0  0  0  0  0  0  0
   14.4080   11.6420   11.9258 C   0  0  0  0  0  0  0  0  0  0  0  0
   13.8054   12.3959   12.8427 F   0  0  0  0  0  0  0  0  0  0  0  0
   15.5985   11.0289   12.1727 C   0  0  0  0  0  0  0  0  0  0  0  0
   16.2550   11.0854   13.9307 Br  0  0  0  0  0  0  0  0  0  0  0  0
   16.2235   10.4010   11.1001 C   0  0  0  0  0  0  0  0  0  0  0  0
   17.6117   10.3997   10.9202 N   0  0  0  0  0  0  0  0  0  0  0  0
   18.3052   11.5816   11.1292 C   0  0  0  0  0  0  0  0  0  0  0  0
   17.8270   12.6148   11.5917 O   0  0  0  0  0  0  0  0  0  0  0  0
   19.7507   11.4392   10.7153 C   0  0  0  0  0  0  0  0  0  0  0  0
   20.3072   12.7035   10.4570 O   0  0  0  0  0  0  0  0  0  0  0  0
   21.5857   12.8644   11.0511 C   0  0  0  0  0  0  0  0  0  0  0  0
   22.6158   11.9613   10.3954 C   0  0  0  0  0  0  0  0  0  0  0  0
   24.0195   12.4392   10.6809 C   0  0  0  0  0  0  0  0  0  0  0  0
   24.6213   11.8467   12.4178 Br  0  0  0  0  0  0  0  0  0  0  0  0
  1  2  1  0
  2  3  2  0
  3  4  1  0
  4  5  2  0
  5  6  1  0
  5  7  1  0
  7  8  1  0
  7  9  2  0
  9 10  1  0
 10 11  1  0
 11 12  2  0
 11 13  1  0
 13 14  1  0
 14 15  1  0
 15 16  1  0
 16 17  1  0
 17 18  1  0
  9  2  1  0
M  END
>  <HIPPO ID>  (295) 
113212

>  <alias>  (295) 
None

>  <ref_mols>  (295) 
c0692a,c1116a

>  <submitter_email>  (295) 
None

>  <ref_pdb>  (295) 
c0270a

>  <inchikey>  (295) 
UTPHHRKJVOJTAU-UHFFFAOYSA-N

>  <generation_date>  (295) 
None

>  <original ID>  (295) 
UTPHHRKJVOJTAU-UHFFFAOYSA-N

>  <tags>  (295) 
[]

>  <exports>  (295) 
nan

>  <method>  (295) 
None

>  <submitter_name>  (295) 
None

>  <original SMILES>  (295) 
Nc1ccc(F)c(Br)c1NC(=O)COCCCBr

>  <ref_url>  (295) 
None

$$$$
SDHIBCKYSAPHTB-UHFFFAOYSA-N
     RDKit          3D

 18 18  0  0  0  0  0  0  0  0999 V2000
   22.0340   12.0107   12.3026 C   0  0  0  0  0  0  0  0  0  0  0  0
   21.5265   12.1707   10.8675 C   0  0  0  0  0  0  0  0  0  0  0  0
   21.8070   13.5929   10.3660 C   0  0  0  0  0  0  0  0  0  0  0  0
   22.2970   11.1743   10.0251 C   0  0  0  0  0  0  0  0  0  0  0  0
   20.1393   11.7992   10.7373 O   0  0  0  0  0  0  0  0  0  0  0  0
   19.2292   12.7067   11.3271 C   0  0  0  0  0  0  0  0  0  0  0  0
   17.7942   12.2071   11.4195 C   0  0  0  0  0  0  0  0  0  0  0  0
   16.9742   12.8333   12.0960 O   0  0  0  0  0  0  0  0  0  0  0  0
   17.5020   11.0875   10.6785 N   0  0  0  0  0  0  0  0  0  0  0  0
   16.3823   10.2449   10.8377 C   0  0  0  0  0  0  0  0  0  0  0  0
   15.9859    9.5006    9.7233 C   0  0  0  0  0  0  0  0  0  0  0  0
   15.0461    8.4823    9.8339 C   0  0  0  0  0  0  0  0  0  0  0  0
   14.5808    8.1068   11.0834 C   0  0  0  0  0  0  0  0  0  0  0  0
   13.4693    6.3190   11.1557 I   0  0  0  0  0  0  0  0  0  0  0  0
   14.9222    8.8880   12.1944 C   0  0  0  0  0  0  0  0  0  0  0  0
   14.3443    8.5609   13.7852 Cl  0  0  0  0  0  0  0  0  0  0  0  0
   15.7580   10.0179   12.0757 C   0  0  0  0  0  0  0  0  0  0  0  0
   16.1675   10.6931   13.2620 N   0  0  0  0  0  0  0  0  0  0  0  0
  1  2  1  0
  2  3  1  0
  2  4  1  0
  2  5  1  0
  5  6  1  0
  6  7  1  0
  7  8  2  0
  7  9  1  0
  9 10  1  0
 10 11  2  0
 11 12  1  0
 12 13  2  0
 13 14  1  0
 13 15  1  0
 15 16  1  0
 15 17  2  0
 17 18  1  0
 17 10  1  0
M  END
>  <HIPPO ID>  (296) 
113214

>  <alias>  (296) 
None

>  <ref_mols>  (296) 
c0692a,c1116a

>  <submitter_email>  (296) 
None

>  <ref_pdb>  (296) 
c0270a

>  <inchikey>  (296) 
SDHIBCKYSAPHTB-UHFFFAOYSA-N

>  <generation_date>  (296) 
None

>  <original ID>  (296) 
SDHIBCKYSAPHTB-UHFFFAOYSA-N

>  <tags>  (296) 
[]

>  <exports>  (296) 
nan

>  <method>  (296) 
None

>  <submitter_name>  (296) 
None

>  <original SMILES>  (296) 
CC(C)(C)OCC(=O)Nc1ccc(I)c(Cl)c1N

>  <ref_url>  (296) 
None

$$$$
NBBHGKIAHSVJER-UHFFFAOYSA-N
     RDKit          3D

 18 18  0  0  0  0  0  0  0  0999 V2000
   14.8448    9.9295    8.5775 C   0  0  0  0  0  0  0  0  0  0  0  0
   16.0943    9.2901    8.9533 N   0  0  0  0  0  0  0  0  0  0  0  0
   16.0177    9.1325   10.3530 C   0  0  0  0  0  0  0  0  0  0  0  0
   15.1611    8.1212   10.8196 C   0  0  0  0  0  0  0  0  0  0  0  0
   14.6825    8.1697   12.1140 C   0  0  0  0  0  0  0  0  0  0  0  0
   15.0133    9.2675   12.8964 C   0  0  0  0  0  0  0  0  0  0  0  0
   14.2432    9.5497   14.5688 Br  0  0  0  0  0  0  0  0  0  0  0  0
   15.9029   10.2380   12.4704 C   0  0  0  0  0  0  0  0  0  0  0  0
   16.4552   10.1584   11.2067 C   0  0  0  0  0  0  0  0  0  0  0  0
   17.4824   11.0390   10.8103 N   0  0  0  0  0  0  0  0  0  0  0  0
   17.7883   12.2118   11.4655 C   0  0  0  0  0  0  0  0  0  0  0  0
   16.9872   12.8703   12.1310 O   0  0  0  0  0  0  0  0  0  0  0  0
   19.2179   12.7097   11.3138 C   0  0  0  0  0  0  0  0  0  0  0  0
   20.1354   11.7496   10.8333 O   0  0  0  0  0  0  0  0  0  0  0  0
   21.5211   12.1147   10.9869 C   0  0  0  0  0  0  0  0  0  0  0  0
   22.2939   11.1020   10.1704 C   0  0  0  0  0  0  0  0  0  0  0  0
   21.9992   11.9772   12.4319 C   0  0  0  0  0  0  0  0  0  0  0  0
   21.8363   13.5289   10.4916 C   0  0  0  0  0  0  0  0  0  0  0  0
  1  2  1  0
  2  3  1  0
  3  4  2  0
  4  5  1  0
  5  6  2  0
  6  7  1  0
  6  8  1  0
  8  9  2  0
  9 10  1  0
 10 11  1  0
 11 12  2  0
 11 13  1  0
 13 14  1  0
 14 15  1  0
 15 16  1  0
 15 17  1  0
 15 18  1  0
  9  3  1  0
M  END
>  <HIPPO ID>  (297) 
113216

>  <alias>  (297) 
None

>  <ref_mols>  (297) 
c0692a,c1116a

>  <submitter_email>  (297) 
None

>  <ref_pdb>  (297) 
c0270a

>  <inchikey>  (297) 
NBBHGKIAHSVJER-UHFFFAOYSA-N

>  <generation_date>  (297) 
None

>  <original ID>  (297) 
NBBHGKIAHSVJER-UHFFFAOYSA-N

>  <tags>  (297) 
[]

>  <exports>  (297) 
nan

>  <method>  (297) 
None

>  <submitter_name>  (297) 
None

>  <original SMILES>  (297) 
CNc1ccc(Br)cc1NC(=O)COC(C)(C)C

>  <ref_url>  (297) 
None

$$$$
YVDQAWWMBYSAJA-UHFFFAOYSA-N
     RDKit          3D

 18 18  0  0  0  0  0  0  0  0999 V2000
   22.1029   11.1344   11.9635 C   0  0  0  0  0  0  0  0  0  0  0  0
   21.6478   12.0400   10.8360 C   0  0  0  0  0  0  0  0  0  0  0  0
   22.4563   11.6493    9.6099 C   0  0  0  0  0  0  0  0  0  0  0  0
   21.9930   13.4830   11.1961 C   0  0  0  0  0  0  0  0  0  0  0  0
   20.2478   11.7866   10.5498 O   0  0  0  0  0  0  0  0  0  0  0  0
   19.3373   12.5963   11.2689 C   0  0  0  0  0  0  0  0  0  0  0  0
   17.8566   12.2009   11.2826 C   0  0  0  0  0  0  0  0  0  0  0  0
   17.0295   12.9861   11.7464 O   0  0  0  0  0  0  0  0  0  0  0  0
   17.5436   10.9790   10.7380 N   0  0  0  0  0  0  0  0  0  0  0  0
   16.3618   10.2317   10.9912 C   0  0  0  0  0  0  0  0  0  0  0  0
   15.8800    9.3951    9.9548 C   0  0  0  0  0  0  0  0  0  0  0  0
   16.3481    9.4675    8.6478 N   0  0  0  0  0  0  0  0  0  0  0  0
   14.9970    8.3471   10.2177 C   0  0  0  0  0  0  0  0  0  0  0  0
   14.4816    8.1942   11.4814 C   0  0  0  0  0  0  0  0  0  0  0  0
   14.7886    9.1518   12.4371 C   0  0  0  0  0  0  0  0  0  0  0  0
   14.1215    9.1346   13.5924 F   0  0  0  0  0  0  0  0  0  0  0  0
   15.7297   10.1532   12.2347 C   0  0  0  0  0  0  0  0  0  0  0  0
   16.1187   11.1513   13.8031 Br  0  0  0  0  0  0  0  0  0  0  0  0
  1  2  1  0
  2  3  1  0
  2  4  1  0
  2  5  1  0
  5  6  1  0
  6  7  1  0
  7  8  2  0
  7  9  1  0
  9 10  1  0
 10 11  2  0
 11 12  1  0
 11 13  1  0
 13 14  2  0
 14 15  1  0
 15 16  1  0
 15 17  2  0
 17 18  1  0
 17 10  1  0
M  END
>  <HIPPO ID>  (298) 
113232

>  <alias>  (298) 
None

>  <ref_mols>  (298) 
c0692a,c1116a

>  <submitter_email>  (298) 
None

>  <ref_pdb>  (298) 
c0270a

>  <inchikey>  (298) 
YVDQAWWMBYSAJA-UHFFFAOYSA-N

>  <generation_date>  (298) 
None

>  <original ID>  (298) 
YVDQAWWMBYSAJA-UHFFFAOYSA-N

>  <tags>  (298) 
[]

>  <exports>  (298) 
nan

>  <method>  (298) 
None

>  <submitter_name>  (298) 
None

>  <original SMILES>  (298) 
CC(C)(C)OCC(=O)Nc1c(N)ccc(F)c1Br

>  <ref_url>  (298) 
None

$$$$
ZDNIPTRCSIENFN-UHFFFAOYSA-N
     RDKit          3D

 18 18  0  0  0  0  0  0  0  0999 V2000
   22.2510   11.0714   10.1119 C   0  0  0  0  0  0  0  0  0  0  0  0
   21.4792   12.0311   10.9902 C   0  0  0  0  0  0  0  0  0  0  0  0
   21.7668   13.4699   10.5672 C   0  0  0  0  0  0  0  0  0  0  0  0
   22.0020   11.8298   12.4095 C   0  0  0  0  0  0  0  0  0  0  0  0
   20.0938   11.6548   10.8473 O   0  0  0  0  0  0  0  0  0  0  0  0
   19.1644   12.5994   11.3444 C   0  0  0  0  0  0  0  0  0  0  0  0
   17.7504   12.0593   11.5463 C   0  0  0  0  0  0  0  0  0  0  0  0
   17.0318   12.5609   12.4115 O   0  0  0  0  0  0  0  0  0  0  0  0
   17.3591   11.0465   10.6937 N   0  0  0  0  0  0  0  0  0  0  0  0
   16.2662   10.1781   10.9107 C   0  0  0  0  0  0  0  0  0  0  0  0
   15.7284   10.0124   12.1752 C   0  0  0  0  0  0  0  0  0  0  0  0
   14.8706    8.9505   12.4414 C   0  0  0  0  0  0  0  0  0  0  0  0
   14.3031    8.9084   14.0541 Cl  0  0  0  0  0  0  0  0  0  0  0  0
   14.5282    8.0385   11.4405 C   0  0  0  0  0  0  0  0  0  0  0  0
   13.4064    6.2832   11.7124 I   0  0  0  0  0  0  0  0  0  0  0  0
   14.9544    8.2892   10.1463 C   0  0  0  0  0  0  0  0  0  0  0  0
   15.7844    9.3751    9.8705 C   0  0  0  0  0  0  0  0  0  0  0  0
   16.2482    9.4864    8.5686 N   0  0  0  0  0  0  0  0  0  0  0  0
  1  2  1  0
  2  3  1  0
  2  4  1  0
  2  5  1  0
  5  6  1  0
  6  7  1  0
  7  8  2  0
  7  9  1  0
  9 10  1  0
 10 11  2  0
 11 12  1  0
 12 13  1  0
 12 14  2  0
 14 15  1  0
 14 16  1  0
 16 17  2  0
 17 18  1  0
 17 10  1  0
M  END
>  <HIPPO ID>  (299) 
113235

>  <alias>  (299) 
None

>  <ref_mols>  (299) 
c0692a,c1116a

>  <submitter_email>  (299) 
None

>  <ref_pdb>  (299) 
c0270a

>  <inchikey>  (299) 
ZDNIPTRCSIENFN-UHFFFAOYSA-N

>  <generation_date>  (299) 
None

>  <original ID>  (299) 
ZDNIPTRCSIENFN-UHFFFAOYSA-N

>  <tags>  (299) 
[]

>  <exports>  (299) 
nan

>  <method>  (299) 
None

>  <submitter_name>  (299) 
None

>  <original SMILES>  (299) 
CC(C)(C)OCC(=O)Nc1cc(Cl)c(I)cc1N

>  <ref_url>  (299) 
None

$$$$
GTXAJXGWLVSHPN-UHFFFAOYSA-N
     RDKit          3D

 18 18  0  0  0  0  0  0  0  0999 V2000
   22.0315   11.7743   12.3882 C   0  0  0  0  0  0  0  0  0  0  0  0
   21.5089   12.0103   10.9756 C   0  0  0  0  0  0  0  0  0  0  0  0
   21.8094   13.4527   10.5811 C   0  0  0  0  0  0  0  0  0  0  0  0
   22.2718   11.0659   10.0763 C   0  0  0  0  0  0  0  0  0  0  0  0
   20.1216   11.6459   10.8273 O   0  0  0  0  0  0  0  0  0  0  0  0
   19.1988   12.5961   11.3245 C   0  0  0  0  0  0  0  0  0  0  0  0
   17.7784   12.0692   11.5063 C   0  0  0  0  0  0  0  0  0  0  0  0
   17.0456   12.5920   12.3472 O   0  0  0  0  0  0  0  0  0  0  0  0
   17.3969   11.0415   10.6658 N   0  0  0  0  0  0  0  0  0  0  0  0
   16.3009   10.1806   10.8899 C   0  0  0  0  0  0  0  0  0  0  0  0
   15.7887   10.0190   12.1647 C   0  0  0  0  0  0  0  0  0  0  0  0
   14.9225    8.9681   12.4504 C   0  0  0  0  0  0  0  0  0  0  0  0
   14.3684    8.9021   14.4293 I   0  0  0  0  0  0  0  0  0  0  0  0
   14.5277    8.0802   11.4486 C   0  0  0  0  0  0  0  0  0  0  0  0
   13.5257    6.6944   11.6948 Cl  0  0  0  0  0  0  0  0  0  0  0  0
   14.9436    8.3160   10.1494 C   0  0  0  0  0  0  0  0  0  0  0  0
   15.7985    9.3779    9.8602 C   0  0  0  0  0  0  0  0  0  0  0  0
   16.2596    9.4683    8.5559 N   0  0  0  0  0  0  0  0  0  0  0  0
  1  2  1  0
  2  3  1  0
  2  4  1  0
  2  5  1  0
  5  6  1  0
  6  7  1  0
  7  8  2  0
  7  9  1  0
  9 10  1  0
 10 11  2  0
 11 12  1  0
 12 13  1  0
 12 14  2  0
 14 15  1  0
 14 16  1  0
 16 17  2  0
 17 18  1  0
 17 10  1  0
M  END
>  <HIPPO ID>  (300) 
113236

>  <alias>  (300) 
None

>  <ref_mols>  (300) 
c0692a,c1116a

>  <submitter_email>  (300) 
None

>  <ref_pdb>  (300) 
c0270a

>  <inchikey>  (300) 
GTXAJXGWLVSHPN-UHFFFAOYSA-N

>  <generation_date>  (300) 
None

>  <original ID>  (300) 
GTXAJXGWLVSHPN-UHFFFAOYSA-N

>  <tags>  (300) 
[]

>  <exports>  (300) 
nan

>  <method>  (300) 
None

>  <submitter_name>  (300) 
None

>  <original SMILES>  (300) 
CC(C)(C)OCC(=O)Nc1cc(I)c(Cl)cc1N

>  <ref_url>  (300) 
None

$$$$
APKQWRJXKXVOND-UHFFFAOYSA-N
     RDKit          3D

 18 18  0  0  0  0  0  0  0  0999 V2000
   16.2912    9.4471    8.5491 N   0  0  0  0  0  0  0  0  0  0  0  0
   15.8066    9.3801    9.8460 C   0  0  0  0  0  0  0  0  0  0  0  0
   14.9236    8.3468   10.1346 C   0  0  0  0  0  0  0  0  0  0  0  0
   14.4261    8.2349   11.4094 C   0  0  0  0  0  0  0  0  0  0  0  0
   13.5109    7.2877   11.6593 F   0  0  0  0  0  0  0  0  0  0  0  0
   14.7749    9.1786   12.3716 C   0  0  0  0  0  0  0  0  0  0  0  0
   14.1639    9.2307   13.5540 F   0  0  0  0  0  0  0  0  0  0  0  0
   15.7081   10.1581   12.1208 C   0  0  0  0  0  0  0  0  0  0  0  0
   16.2871   10.2195   10.8681 C   0  0  0  0  0  0  0  0  0  0  0  0
   17.3988   11.0404   10.6216 N   0  0  0  0  0  0  0  0  0  0  0  0
   17.8361   12.0754   11.4199 C   0  0  0  0  0  0  0  0  0  0  0  0
   17.1778   12.6184   12.3053 O   0  0  0  0  0  0  0  0  0  0  0  0
   19.2547   12.5417   11.1254 C   0  0  0  0  0  0  0  0  0  0  0  0
   19.9637   11.6544   10.2683 O   0  0  0  0  0  0  0  0  0  0  0  0
   21.3831   11.8487   10.3678 C   0  0  0  0  0  0  0  0  0  0  0  0
   21.8920   10.9701   11.4834 C   0  0  0  0  0  0  0  0  0  0  0  0
   23.0189   11.5588   12.2845 C   0  0  0  0  0  0  0  0  0  0  0  0
   22.3529   12.9982   13.3864 Br  0  0  0  0  0  0  0  0  0  0  0  0
  1  2  1  0
  2  3  2  0
  3  4  1  0
  4  5  1  0
  4  6  2  0
  6  7  1  0
  6  8  1  0
  8  9  2  0
  9 10  1  0
 10 11  1  0
 11 12  2  0
 11 13  1  0
 13 14  1  0
 14 15  1  0
 15 16  1  0
 16 17  1  0
 17 18  1  0
  9  2  1  0
M  END
>  <HIPPO ID>  (301) 
113244

>  <alias>  (301) 
None

>  <ref_mols>  (301) 
c0692a,c1116a

>  <submitter_email>  (301) 
None

>  <ref_pdb>  (301) 
c0270a

>  <inchikey>  (301) 
APKQWRJXKXVOND-UHFFFAOYSA-N

>  <generation_date>  (301) 
None

>  <original ID>  (301) 
APKQWRJXKXVOND-UHFFFAOYSA-N

>  <tags>  (301) 
[]

>  <exports>  (301) 
nan

>  <method>  (301) 
None

>  <submitter_name>  (301) 
None

>  <original SMILES>  (301) 
Nc1cc(F)c(F)cc1NC(=O)COCCCBr

>  <ref_url>  (301) 
None

$$$$
UGSSUIYETHZNFH-UHFFFAOYSA-N
     RDKit          3D

 18 18  0  0  0  0  0  0  0  0999 V2000
   16.1218   10.7835   13.1986 N   0  0  0  0  0  0  0  0  0  0  0  0
   15.7368   10.1294   12.0015 C   0  0  0  0  0  0  0  0  0  0  0  0
   16.4193   10.2386   10.7860 C   0  0  0  0  0  0  0  0  0  0  0  0
   17.5663   11.0244   10.6162 N   0  0  0  0  0  0  0  0  0  0  0  0
   17.9271   12.1432   11.3295 C   0  0  0  0  0  0  0  0  0  0  0  0
   17.1750   12.8213   12.0304 O   0  0  0  0  0  0  0  0  0  0  0  0
   19.3816   12.5362   11.1541 C   0  0  0  0  0  0  0  0  0  0  0  0
   20.1173   11.4983   10.5166 O   0  0  0  0  0  0  0  0  0  0  0  0
   21.5122   11.8013   10.4722 C   0  0  0  0  0  0  0  0  0  0  0  0
   22.1819   11.4202   11.7838 C   0  0  0  0  0  0  0  0  0  0  0  0
   23.3593   12.2929   12.1552 C   0  0  0  0  0  0  0  0  0  0  0  0
   24.6360   12.5061   10.7280 Br  0  0  0  0  0  0  0  0  0  0  0  0
   16.0296    9.4506    9.6891 C   0  0  0  0  0  0  0  0  0  0  0  0
   15.0106    8.5139    9.8004 C   0  0  0  0  0  0  0  0  0  0  0  0
   14.4406    8.3031   11.0316 C   0  0  0  0  0  0  0  0  0  0  0  0
   13.4963    7.3601   11.1589 F   0  0  0  0  0  0  0  0  0  0  0  0
   14.7962    9.1128   12.1048 C   0  0  0  0  0  0  0  0  0  0  0  0
   14.1748    9.0057   13.2818 F   0  0  0  0  0  0  0  0  0  0  0  0
  1  2  1  0
  2  3  2  0
  3  4  1  0
  4  5  1  0
  5  6  2  0
  5  7  1  0
  7  8  1  0
  8  9  1  0
  9 10  1  0
 10 11  1  0
 11 12  1  0
  3 13  1  0
 13 14  2  0
 14 15  1  0
 15 16  1  0
 15 17  2  0
 17 18  1  0
 17  2  1  0
M  END
>  <HIPPO ID>  (302) 
113245

>  <alias>  (302) 
None

>  <ref_mols>  (302) 
c0692a,c1116a

>  <submitter_email>  (302) 
None

>  <ref_pdb>  (302) 
c0270a

>  <inchikey>  (302) 
UGSSUIYETHZNFH-UHFFFAOYSA-N

>  <generation_date>  (302) 
None

>  <original ID>  (302) 
UGSSUIYETHZNFH-UHFFFAOYSA-N

>  <tags>  (302) 
[]

>  <exports>  (302) 
nan

>  <method>  (302) 
None

>  <submitter_name>  (302) 
None

>  <original SMILES>  (302) 
Nc1c(NC(=O)COCCCBr)ccc(F)c1F

>  <ref_url>  (302) 
None

$$$$
IMBNZTSLDPFNFZ-UHFFFAOYSA-N
     RDKit          3D

 18 18  0  0  0  0  0  0  0  0999 V2000
   16.2628    9.4410    8.6023 N   0  0  0  0  0  0  0  0  0  0  0  0
   15.8009    9.3712    9.9107 C   0  0  0  0  0  0  0  0  0  0  0  0
   14.9414    8.3171   10.2245 C   0  0  0  0  0  0  0  0  0  0  0  0
   14.4653    8.1801   11.5141 C   0  0  0  0  0  0  0  0  0  0  0  0
   14.8058    9.1446   12.4529 C   0  0  0  0  0  0  0  0  0  0  0  0
   14.2022    9.1757   13.6394 F   0  0  0  0  0  0  0  0  0  0  0  0
   15.7358   10.1225   12.1880 C   0  0  0  0  0  0  0  0  0  0  0  0
   16.1603   10.8586   13.2215 F   0  0  0  0  0  0  0  0  0  0  0  0
   16.2955   10.2115   10.9238 C   0  0  0  0  0  0  0  0  0  0  0  0
   17.4173   11.0185   10.6595 N   0  0  0  0  0  0  0  0  0  0  0  0
   17.7976   12.1279   11.3828 C   0  0  0  0  0  0  0  0  0  0  0  0
   17.0500   12.8187   12.0708 O   0  0  0  0  0  0  0  0  0  0  0  0
   19.2647   12.5037   11.2288 C   0  0  0  0  0  0  0  0  0  0  0  0
   19.9849   11.5734   10.4345 O   0  0  0  0  0  0  0  0  0  0  0  0
   21.3973   11.5984   10.6736 C   0  0  0  0  0  0  0  0  0  0  0  0
   22.0024   12.9954   10.5077 C   0  0  0  0  0  0  0  0  0  0  0  0
   23.5153   12.9705   10.4267 C   0  0  0  0  0  0  0  0  0  0  0  0
   24.2898   12.5769   12.1667 Br  0  0  0  0  0  0  0  0  0  0  0  0
  1  2  1  0
  2  3  2  0
  3  4  1  0
  4  5  2  0
  5  6  1  0
  5  7  1  0
  7  8  1  0
  7  9  2  0
  9 10  1  0
 10 11  1  0
 11 12  2  0
 11 13  1  0
 13 14  1  0
 14 15  1  0
 15 16  1  0
 16 17  1  0
 17 18  1  0
  9  2  1  0
M  END
>  <HIPPO ID>  (303) 
113246

>  <alias>  (303) 
None

>  <ref_mols>  (303) 
c0692a,c1116a

>  <submitter_email>  (303) 
None

>  <ref_pdb>  (303) 
c0270a

>  <inchikey>  (303) 
IMBNZTSLDPFNFZ-UHFFFAOYSA-N

>  <generation_date>  (303) 
None

>  <original ID>  (303) 
IMBNZTSLDPFNFZ-UHFFFAOYSA-N

>  <tags>  (303) 
[]

>  <exports>  (303) 
nan

>  <method>  (303) 
None

>  <submitter_name>  (303) 
None

>  <original SMILES>  (303) 
Nc1ccc(F)c(F)c1NC(=O)COCCCBr

>  <ref_url>  (303) 
None

$$$$
GIKRGPZFQIFVCW-UHFFFAOYSA-N
     RDKit          3D

 18 18  0  0  0  0  0  0  0  0999 V2000
   16.2968    9.4398    8.5523 N   0  0  0  0  0  0  0  0  0  0  0  0
   15.7945    9.3563    9.8421 C   0  0  0  0  0  0  0  0  0  0  0  0
   14.9570    8.2812   10.1211 C   0  0  0  0  0  0  0  0  0  0  0  0
   14.4809    8.1007   11.4005 C   0  0  0  0  0  0  0  0  0  0  0  0
   13.4983    6.7214   11.7142 Cl  0  0  0  0  0  0  0  0  0  0  0  0
   14.7793    9.0618   12.3656 C   0  0  0  0  0  0  0  0  0  0  0  0
   14.1947    9.0668   13.5625 F   0  0  0  0  0  0  0  0  0  0  0  0
   15.6539   10.1022   12.1183 C   0  0  0  0  0  0  0  0  0  0  0  0
   16.2423   10.1985   10.8728 C   0  0  0  0  0  0  0  0  0  0  0  0
   17.3471   11.0361   10.6399 N   0  0  0  0  0  0  0  0  0  0  0  0
   17.8076   12.0304   11.4759 C   0  0  0  0  0  0  0  0  0  0  0  0
   17.1587   12.5607   12.3755 O   0  0  0  0  0  0  0  0  0  0  0  0
   19.2351   12.4821   11.1905 C   0  0  0  0  0  0  0  0  0  0  0  0
   20.0105   11.4598   10.5738 O   0  0  0  0  0  0  0  0  0  0  0  0
   21.4023   11.8061   10.5326 C   0  0  0  0  0  0  0  0  0  0  0  0
   22.0790   11.4905   11.8617 C   0  0  0  0  0  0  0  0  0  0  0  0
   23.1922   12.4439   12.2341 C   0  0  0  0  0  0  0  0  0  0  0  0
   24.6091   12.4798   10.9318 Br  0  0  0  0  0  0  0  0  0  0  0  0
  1  2  1  0
  2  3  2  0
  3  4  1  0
  4  5  1  0
  4  6  2  0
  6  7  1  0
  6  8  1  0
  8  9  2  0
  9 10  1  0
 10 11  1  0
 11 12  2  0
 11 13  1  0
 13 14  1  0
 14 15  1  0
 15 16  1  0
 16 17  1  0
 17 18  1  0
  9  2  1  0
M  END
>  <HIPPO ID>  (304) 
113254

>  <alias>  (304) 
None

>  <ref_mols>  (304) 
c0692a,c1116a

>  <submitter_email>  (304) 
None

>  <ref_pdb>  (304) 
c0270a

>  <inchikey>  (304) 
GIKRGPZFQIFVCW-UHFFFAOYSA-N

>  <generation_date>  (304) 
None

>  <original ID>  (304) 
GIKRGPZFQIFVCW-UHFFFAOYSA-N

>  <tags>  (304) 
[]

>  <exports>  (304) 
nan

>  <method>  (304) 
None

>  <submitter_name>  (304) 
None

>  <original SMILES>  (304) 
Nc1cc(Cl)c(F)cc1NC(=O)COCCCBr

>  <ref_url>  (304) 
None

$$$$
QKZBMWOFIJZGOW-UHFFFAOYSA-N
     RDKit          3D

 18 18  0  0  0  0  0  0  0  0999 V2000
   16.2302    9.4443    8.5487 N   0  0  0  0  0  0  0  0  0  0  0  0
   15.7765    9.3889    9.8575 C   0  0  0  0  0  0  0  0  0  0  0  0
   14.9000    8.3656   10.1934 C   0  0  0  0  0  0  0  0  0  0  0  0
   14.4634    8.2555   11.4969 C   0  0  0  0  0  0  0  0  0  0  0  0
   13.5639    7.3006   11.7777 F   0  0  0  0  0  0  0  0  0  0  0  0
   14.8696    9.1866   12.4533 C   0  0  0  0  0  0  0  0  0  0  0  0
   14.2764    9.2284   14.0526 Cl  0  0  0  0  0  0  0  0  0  0  0  0
   15.7845   10.1693   12.1363 C   0  0  0  0  0  0  0  0  0  0  0  0
   16.2993   10.2254   10.8549 C   0  0  0  0  0  0  0  0  0  0  0  0
   17.4198   11.0217   10.5767 N   0  0  0  0  0  0  0  0  0  0  0  0
   17.8525   12.0760   11.3498 C   0  0  0  0  0  0  0  0  0  0  0  0
   17.1445   12.7155   12.1272 O   0  0  0  0  0  0  0  0  0  0  0  0
   19.3149   12.4408   11.1664 C   0  0  0  0  0  0  0  0  0  0  0  0
   20.1059   11.2998   10.8670 O   0  0  0  0  0  0  0  0  0  0  0  0
   21.5043   11.5886   10.7399 C   0  0  0  0  0  0  0  0  0  0  0  0
   22.0774   12.2963   11.9689 C   0  0  0  0  0  0  0  0  0  0  0  0
   23.5799   12.4482   11.9738 C   0  0  0  0  0  0  0  0  0  0  0  0
   24.2000   13.4813   10.4639 Br  0  0  0  0  0  0  0  0  0  0  0  0
  1  2  1  0
  2  3  2  0
  3  4  1  0
  4  5  1  0
  4  6  2  0
  6  7  1  0
  6  8  1  0
  8  9  2  0
  9 10  1  0
 10 11  1  0
 11 12  2  0
 11 13  1  0
 13 14  1  0
 14 15  1  0
 15 16  1  0
 16 17  1  0
 17 18  1  0
  9  2  1  0
M  END
>  <HIPPO ID>  (305) 
113255

>  <alias>  (305) 
None

>  <ref_mols>  (305) 
c0692a,c1116a

>  <submitter_email>  (305) 
None

>  <ref_pdb>  (305) 
c0270a

>  <inchikey>  (305) 
QKZBMWOFIJZGOW-UHFFFAOYSA-N

>  <generation_date>  (305) 
None

>  <original ID>  (305) 
QKZBMWOFIJZGOW-UHFFFAOYSA-N

>  <tags>  (305) 
[]

>  <exports>  (305) 
nan

>  <method>  (305) 
None

>  <submitter_name>  (305) 
None

>  <original SMILES>  (305) 
Nc1cc(F)c(Cl)cc1NC(=O)COCCCBr

>  <ref_url>  (305) 
None

$$$$
HOOYGPQYZUWHNE-UHFFFAOYSA-N
     RDKit          3D

 18 18  0  0  0  0  0  0  0  0999 V2000
   21.9714   12.0292   12.3208 C   0  0  0  0  0  0  0  0  0  0  0  0
   21.4649   12.1429   10.8802 C   0  0  0  0  0  0  0  0  0  0  0  0
   22.2525   11.1350   10.0659 C   0  0  0  0  0  0  0  0  0  0  0  0
   21.7302   13.5598   10.3526 C   0  0  0  0  0  0  0  0  0  0  0  0
   20.0826   11.7439   10.7557 O   0  0  0  0  0  0  0  0  0  0  0  0
   19.1526   12.6503   11.3132 C   0  0  0  0  0  0  0  0  0  0  0  0
   17.7469   12.0927   11.5155 C   0  0  0  0  0  0  0  0  0  0  0  0
   17.0144   12.6070   12.3614 O   0  0  0  0  0  0  0  0  0  0  0  0
   17.3775   11.0551   10.6845 N   0  0  0  0  0  0  0  0  0  0  0  0
   16.2852   10.1889   10.9075 C   0  0  0  0  0  0  0  0  0  0  0  0
   15.7432   10.0442   12.1727 C   0  0  0  0  0  0  0  0  0  0  0  0
   14.8751    8.9952   12.4463 C   0  0  0  0  0  0  0  0  0  0  0  0
   14.2968    8.9686   14.0551 Cl  0  0  0  0  0  0  0  0  0  0  0  0
   14.5274    8.0758   11.4547 C   0  0  0  0  0  0  0  0  0  0  0  0
   13.4645    6.5268   11.7345 Br  0  0  0  0  0  0  0  0  0  0  0  0
   14.9662    8.2975   10.1613 C   0  0  0  0  0  0  0  0  0  0  0  0
   15.8068    9.3716    9.8758 C   0  0  0  0  0  0  0  0  0  0  0  0
   16.2765    9.4647    8.5747 N   0  0  0  0  0  0  0  0  0  0  0  0
  1  2  1  0
  2  3  1  0
  2  4  1  0
  2  5  1  0
  5  6  1  0
  6  7  1  0
  7  8  2  0
  7  9  1  0
  9 10  1  0
 10 11  2  0
 11 12  1  0
 12 13  1  0
 12 14  2  0
 14 15  1  0
 14 16  1  0
 16 17  2  0
 17 18  1  0
 17 10  1  0
M  END
>  <HIPPO ID>  (306) 
113261

>  <alias>  (306) 
None

>  <ref_mols>  (306) 
c0692a,c1116a

>  <submitter_email>  (306) 
None

>  <ref_pdb>  (306) 
c0270a

>  <inchikey>  (306) 
HOOYGPQYZUWHNE-UHFFFAOYSA-N

>  <generation_date>  (306) 
None

>  <original ID>  (306) 
HOOYGPQYZUWHNE-UHFFFAOYSA-N

>  <tags>  (306) 
[]

>  <exports>  (306) 
nan

>  <method>  (306) 
None

>  <submitter_name>  (306) 
None

>  <original SMILES>  (306) 
CC(C)(C)OCC(=O)Nc1cc(Cl)c(Br)cc1N

>  <ref_url>  (306) 
None

$$$$
CPYVRGOKQHBRTK-UHFFFAOYSA-N
     RDKit          3D

 18 18  0  0  0  0  0  0  0  0999 V2000
   22.4219   11.6871    9.5732 C   0  0  0  0  0  0  0  0  0  0  0  0
   21.5919   12.1825   10.7501 C   0  0  0  0  0  0  0  0  0  0  0  0
   21.8415   13.6898   10.8874 C   0  0  0  0  0  0  0  0  0  0  0  0
   22.0893   11.4344   11.9828 C   0  0  0  0  0  0  0  0  0  0  0  0
   20.2005   11.8427   10.5037 O   0  0  0  0  0  0  0  0  0  0  0  0
   19.2749   12.5994   11.2598 C   0  0  0  0  0  0  0  0  0  0  0  0
   17.8510   12.0694   11.4404 C   0  0  0  0  0  0  0  0  0  0  0  0
   17.1176   12.6163   12.2673 O   0  0  0  0  0  0  0  0  0  0  0  0
   17.4662   11.0193   10.6363 N   0  0  0  0  0  0  0  0  0  0  0  0
   16.3459   10.1913   10.8777 C   0  0  0  0  0  0  0  0  0  0  0  0
   15.8201   10.0709   12.1516 C   0  0  0  0  0  0  0  0  0  0  0  0
   14.9263    9.0486   12.4463 C   0  0  0  0  0  0  0  0  0  0  0  0
   14.3263    9.0631   14.2256 Br  0  0  0  0  0  0  0  0  0  0  0  0
   14.5423    8.1290   11.4690 C   0  0  0  0  0  0  0  0  0  0  0  0
   13.5485    6.7479   11.7610 Cl  0  0  0  0  0  0  0  0  0  0  0  0
   14.9623    8.3316   10.1670 C   0  0  0  0  0  0  0  0  0  0  0  0
   15.8196    9.3866    9.8603 C   0  0  0  0  0  0  0  0  0  0  0  0
   16.2540    9.4751    8.5487 N   0  0  0  0  0  0  0  0  0  0  0  0
  1  2  1  0
  2  3  1  0
  2  4  1  0
  2  5  1  0
  5  6  1  0
  6  7  1  0
  7  8  2  0
  7  9  1  0
  9 10  1  0
 10 11  2  0
 11 12  1  0
 12 13  1  0
 12 14  2  0
 14 15  1  0
 14 16  1  0
 16 17  2  0
 17 18  1  0
 17 10  1  0
M  END
>  <HIPPO ID>  (307) 
113262

>  <alias>  (307) 
None

>  <ref_mols>  (307) 
c0692a,c1116a

>  <submitter_email>  (307) 
None

>  <ref_pdb>  (307) 
c0270a

>  <inchikey>  (307) 
CPYVRGOKQHBRTK-UHFFFAOYSA-N

>  <generation_date>  (307) 
None

>  <original ID>  (307) 
CPYVRGOKQHBRTK-UHFFFAOYSA-N

>  <tags>  (307) 
[]

>  <exports>  (307) 
nan

>  <method>  (307) 
None

>  <submitter_name>  (307) 
None

>  <original SMILES>  (307) 
CC(C)(C)OCC(=O)Nc1cc(Br)c(Cl)cc1N

>  <ref_url>  (307) 
None

$$$$
YPIFVIUDNDVKSF-UHFFFAOYSA-N
     RDKit          3D

 18 18  0  0  0  0  0  0  0  0999 V2000
   14.2495    8.7871   13.9212 C   0  0  0  0  0  0  0  0  0  0  0  0
   14.8452    8.9749   12.5652 C   0  0  0  0  0  0  0  0  0  0  0  0
   14.5127    8.0761   11.5447 C   0  0  0  0  0  0  0  0  0  0  0  0
   14.9429    8.3101   10.2556 C   0  0  0  0  0  0  0  0  0  0  0  0
   15.7716    9.3938    9.9873 C   0  0  0  0  0  0  0  0  0  0  0  0
   16.2033    9.5291    8.6716 N   0  0  0  0  0  0  0  0  0  0  0  0
   16.2633   10.2003   11.0376 C   0  0  0  0  0  0  0  0  0  0  0  0
   17.3916   11.0147   10.7604 N   0  0  0  0  0  0  0  0  0  0  0  0
   17.6890   12.2233   11.3401 C   0  0  0  0  0  0  0  0  0  0  0  0
   16.8636   12.9737   11.8636 O   0  0  0  0  0  0  0  0  0  0  0  0
   19.1516   12.6613   11.2866 C   0  0  0  0  0  0  0  0  0  0  0  0
   20.0792   11.7490   10.7373 O   0  0  0  0  0  0  0  0  0  0  0  0
   21.4628   12.1445   10.8719 C   0  0  0  0  0  0  0  0  0  0  0  0
   22.2560   11.1540   10.0425 C   0  0  0  0  0  0  0  0  0  0  0  0
   21.7354   13.5701   10.3711 C   0  0  0  0  0  0  0  0  0  0  0  0
   21.9640   12.0036   12.3111 C   0  0  0  0  0  0  0  0  0  0  0  0
   15.7345   10.0425   12.3331 C   0  0  0  0  0  0  0  0  0  0  0  0
   16.0705   10.9357   13.4956 C   0  0  0  0  0  0  0  0  0  0  0  0
  1  2  1  0
  2  3  2  0
  3  4  1  0
  4  5  2  0
  5  6  1  0
  5  7  1  0
  7  8  1  0
  8  9  1  0
  9 10  2  0
  9 11  1  0
 11 12  1  0
 12 13  1  0
 13 14  1  0
 13 15  1  0
 13 16  1  0
  7 17  2  0
 17 18  1  0
 17  2  1  0
M  END
>  <HIPPO ID>  (308) 
113264

>  <alias>  (308) 
None

>  <ref_mols>  (308) 
c0692a,c1116a

>  <submitter_email>  (308) 
None

>  <ref_pdb>  (308) 
c0270a

>  <inchikey>  (308) 
YPIFVIUDNDVKSF-UHFFFAOYSA-N

>  <generation_date>  (308) 
None

>  <original ID>  (308) 
YPIFVIUDNDVKSF-UHFFFAOYSA-N

>  <tags>  (308) 
[]

>  <exports>  (308) 
nan

>  <method>  (308) 
None

>  <submitter_name>  (308) 
None

>  <original SMILES>  (308) 
Cc1ccc(N)c(NC(=O)COC(C)(C)C)c1C

>  <ref_url>  (308) 
None

$$$$
IVMDINBDXUZVNU-QMMMGPOBSA-N
     RDKit          3D

 18 18  0  0  0  0  0  0  0  0999 V2000
   21.4146   11.3980   10.4752 C   0  0  0  0  0  0  0  0  0  0  0  0
   20.0222   11.2423   10.7263 O   0  0  0  0  0  0  0  0  0  0  0  0
   19.3568   12.4265   11.1579 C   0  0  2  0  0  0  0  0  0  0  0  0
   19.8273   13.1175   12.4447 C   0  0  0  0  0  0  0  0  0  0  0  0
   19.1247   13.6969   13.2543 O   0  0  0  0  0  0  0  0  0  0  0  0
   21.1558   13.0932   12.6464 O   0  0  0  0  0  0  0  0  0  0  0  0
   17.8521   12.0881   11.2814 C   0  0  0  0  0  0  0  0  0  0  0  0
   17.0493   12.7939   11.8925 O   0  0  0  0  0  0  0  0  0  0  0  0
   17.4433   10.9576   10.6034 N   0  0  0  0  0  0  0  0  0  0  0  0
   16.3066   10.1945   10.9196 C   0  0  0  0  0  0  0  0  0  0  0  0
   15.7924   10.1772   12.1995 C   0  0  0  0  0  0  0  0  0  0  0  0
   14.9340    9.1484   12.5801 C   0  0  0  0  0  0  0  0  0  0  0  0
   14.3956    9.2337   14.5528 I   0  0  0  0  0  0  0  0  0  0  0  0
   14.5441    8.1633   11.6678 C   0  0  0  0  0  0  0  0  0  0  0  0
   13.5732    6.7812   12.0377 Cl  0  0  0  0  0  0  0  0  0  0  0  0
   14.9388    8.2846   10.3505 C   0  0  0  0  0  0  0  0  0  0  0  0
   15.7942    9.3145    9.9712 C   0  0  0  0  0  0  0  0  0  0  0  0
   16.2835    9.2951    8.6858 N   0  0  0  0  0  0  0  0  0  0  0  0
  1  2  1  0
  3  2  1  1
  3  4  1  0
  4  5  2  0
  4  6  1  0
  3  7  1  0
  7  8  2  0
  7  9  1  0
  9 10  1  0
 10 11  2  0
 11 12  1  0
 12 13  1  0
 12 14  2  0
 14 15  1  0
 14 16  1  0
 16 17  2  0
 17 18  1  0
 17 10  1  0
M  END
>  <HIPPO ID>  (309) 
113305

>  <alias>  (309) 
None

>  <ref_mols>  (309) 
c0692a,c1116a

>  <submitter_email>  (309) 
None

>  <ref_pdb>  (309) 
c0270a

>  <inchikey>  (309) 
IVMDINBDXUZVNU-QMMMGPOBSA-N

>  <generation_date>  (309) 
None

>  <original ID>  (309) 
IVMDINBDXUZVNU-QMMMGPOBSA-N

>  <tags>  (309) 
[]

>  <exports>  (309) 
nan

>  <method>  (309) 
None

>  <submitter_name>  (309) 
None

>  <original SMILES>  (309) 
CO[C@H](C(=O)O)C(=O)Nc1cc(I)c(Cl)cc1N

>  <ref_url>  (309) 
None

$$$$
IVMDINBDXUZVNU-MRVPVSSYSA-N
     RDKit          3D

 18 18  0  0  0  0  0  0  0  0999 V2000
   21.5092   11.3614   10.4864 C   0  0  0  0  0  0  0  0  0  0  0  0
   20.0910   11.4183   10.3421 O   0  0  0  0  0  0  0  0  0  0  0  0
   19.5097   12.3863   11.2113 C   0  0  1  0  0  0  0  0  0  0  0  0
   19.7990   13.8332   10.8314 C   0  0  0  0  0  0  0  0  0  0  0  0
   19.9461   14.2893    9.7069 O   0  0  0  0  0  0  0  0  0  0  0  0
   19.9610   14.6404   11.8950 O   0  0  0  0  0  0  0  0  0  0  0  0
   18.0058   12.1034   11.3706 C   0  0  0  0  0  0  0  0  0  0  0  0
   17.3180   12.7345   12.1731 O   0  0  0  0  0  0  0  0  0  0  0  0
   17.5125   11.0705   10.5830 N   0  0  0  0  0  0  0  0  0  0  0  0
   16.3740   10.2792   10.8474 C   0  0  0  0  0  0  0  0  0  0  0  0
   15.8487   10.2031   12.1219 C   0  0  0  0  0  0  0  0  0  0  0  0
   14.9818    9.1637   12.4580 C   0  0  0  0  0  0  0  0  0  0  0  0
   14.4294    9.1870   14.4349 I   0  0  0  0  0  0  0  0  0  0  0  0
   14.5965    8.2141   11.5071 C   0  0  0  0  0  0  0  0  0  0  0  0
   13.6323    6.8154   11.8276 Cl  0  0  0  0  0  0  0  0  0  0  0  0
   15.0022    8.3850   10.1973 C   0  0  0  0  0  0  0  0  0  0  0  0
   15.8570    9.4300    9.8591 C   0  0  0  0  0  0  0  0  0  0  0  0
   16.3036    9.4598    8.5465 N   0  0  0  0  0  0  0  0  0  0  0  0
  1  2  1  0
  3  2  1  6
  3  4  1  0
  4  5  2  0
  4  6  1  0
  3  7  1  0
  7  8  2  0
  7  9  1  0
  9 10  1  0
 10 11  2  0
 11 12  1  0
 12 13  1  0
 12 14  2  0
 14 15  1  0
 14 16  1  0
 16 17  2  0
 17 18  1  0
 17 10  1  0
M  END
>  <HIPPO ID>  (310) 
113306

>  <alias>  (310) 
None

>  <ref_mols>  (310) 
c0692a,c1116a

>  <submitter_email>  (310) 
None

>  <ref_pdb>  (310) 
c0270a

>  <inchikey>  (310) 
IVMDINBDXUZVNU-MRVPVSSYSA-N

>  <generation_date>  (310) 
None

>  <original ID>  (310) 
IVMDINBDXUZVNU-MRVPVSSYSA-N

>  <tags>  (310) 
[]

>  <exports>  (310) 
nan

>  <method>  (310) 
None

>  <submitter_name>  (310) 
None

>  <original SMILES>  (310) 
CO[C@@H](C(=O)O)C(=O)Nc1cc(I)c(Cl)cc1N

>  <ref_url>  (310) 
None

$$$$
KYVSQZAQXSJOJR-QMMMGPOBSA-N
     RDKit          3D

 18 18  0  0  0  0  0  0  0  0999 V2000
   21.4019   11.3632   10.3902 C   0  0  0  0  0  0  0  0  0  0  0  0
   20.0086   11.2213   10.6507 O   0  0  0  0  0  0  0  0  0  0  0  0
   19.3763   12.3889   11.1741 C   0  0  2  0  0  0  0  0  0  0  0  0
   19.9419   13.0672   12.4367 C   0  0  0  0  0  0  0  0  0  0  0  0
   19.3835   13.9189   13.1093 O   0  0  0  0  0  0  0  0  0  0  0  0
   21.1827   12.6693   12.7763 O   0  0  0  0  0  0  0  0  0  0  0  0
   17.8869   12.0238   11.3939 C   0  0  0  0  0  0  0  0  0  0  0  0
   17.1670   12.6065   12.2027 O   0  0  0  0  0  0  0  0  0  0  0  0
   17.4109   11.0039   10.5849 N   0  0  0  0  0  0  0  0  0  0  0  0
   16.2891   10.1922   10.8494 C   0  0  0  0  0  0  0  0  0  0  0  0
   15.7520   10.0916   12.1191 C   0  0  0  0  0  0  0  0  0  0  0  0
   14.8907    9.0431   12.4274 C   0  0  0  0  0  0  0  0  0  0  0  0
   14.3277    9.0625   14.0424 Cl  0  0  0  0  0  0  0  0  0  0  0  0
   14.5463    8.0897   11.4632 C   0  0  0  0  0  0  0  0  0  0  0  0
   13.4449    6.3318   11.8066 I   0  0  0  0  0  0  0  0  0  0  0  0
   14.9611    8.2902   10.1565 C   0  0  0  0  0  0  0  0  0  0  0  0
   15.7925    9.3605    9.8404 C   0  0  0  0  0  0  0  0  0  0  0  0
   16.2565    9.4384    8.5355 N   0  0  0  0  0  0  0  0  0  0  0  0
  1  2  1  0
  3  2  1  1
  3  4  1  0
  4  5  2  0
  4  6  1  0
  3  7  1  0
  7  8  2  0
  7  9  1  0
  9 10  1  0
 10 11  2  0
 11 12  1  0
 12 13  1  0
 12 14  2  0
 14 15  1  0
 14 16  1  0
 16 17  2  0
 17 18  1  0
 17 10  1  0
M  END
>  <HIPPO ID>  (311) 
113307

>  <alias>  (311) 
None

>  <ref_mols>  (311) 
c0692a,c1116a

>  <submitter_email>  (311) 
None

>  <ref_pdb>  (311) 
c0270a

>  <inchikey>  (311) 
KYVSQZAQXSJOJR-QMMMGPOBSA-N

>  <generation_date>  (311) 
None

>  <original ID>  (311) 
KYVSQZAQXSJOJR-QMMMGPOBSA-N

>  <tags>  (311) 
[]

>  <exports>  (311) 
nan

>  <method>  (311) 
None

>  <submitter_name>  (311) 
None

>  <original SMILES>  (311) 
CO[C@H](C(=O)O)C(=O)Nc1cc(Cl)c(I)cc1N

>  <ref_url>  (311) 
None

$$$$
KYVSQZAQXSJOJR-MRVPVSSYSA-N
     RDKit          3D

 18 18  0  0  0  0  0  0  0  0999 V2000
   21.4502   11.3588   10.5144 C   0  0  0  0  0  0  0  0  0  0  0  0
   20.0317   11.4223   10.3713 O   0  0  0  0  0  0  0  0  0  0  0  0
   19.4508   12.3926   11.2404 C   0  0  1  0  0  0  0  0  0  0  0  0
   19.6972   13.8387   10.8340 C   0  0  0  0  0  0  0  0  0  0  0  0
   20.0496   14.2416    9.7334 O   0  0  0  0  0  0  0  0  0  0  0  0
   19.5270   14.7153   11.8421 O   0  0  0  0  0  0  0  0  0  0  0  0
   17.9551   12.0780   11.4306 C   0  0  0  0  0  0  0  0  0  0  0  0
   17.2761   12.6706   12.2684 O   0  0  0  0  0  0  0  0  0  0  0  0
   17.4582   11.0660   10.6205 N   0  0  0  0  0  0  0  0  0  0  0  0
   16.3280   10.2586   10.8763 C   0  0  0  0  0  0  0  0  0  0  0  0
   15.7733   10.1747   12.1395 C   0  0  0  0  0  0  0  0  0  0  0  0
   14.9104    9.1265   12.4532 C   0  0  0  0  0  0  0  0  0  0  0  0
   14.3245    9.1689   14.0595 Cl  0  0  0  0  0  0  0  0  0  0  0  0
   14.5833    8.1538   11.5023 C   0  0  0  0  0  0  0  0  0  0  0  0
   13.5008    6.3859   11.8595 I   0  0  0  0  0  0  0  0  0  0  0  0
   15.0084    8.3382   10.1981 C   0  0  0  0  0  0  0  0  0  0  0  0
   15.8382    9.4088    9.8746 C   0  0  0  0  0  0  0  0  0  0  0  0
   16.2965    9.4613    8.5663 N   0  0  0  0  0  0  0  0  0  0  0  0
  1  2  1  0
  3  2  1  6
  3  4  1  0
  4  5  2  0
  4  6  1  0
  3  7  1  0
  7  8  2  0
  7  9  1  0
  9 10  1  0
 10 11  2  0
 11 12  1  0
 12 13  1  0
 12 14  2  0
 14 15  1  0
 14 16  1  0
 16 17  2  0
 17 18  1  0
 17 10  1  0
M  END
>  <HIPPO ID>  (312) 
113308

>  <alias>  (312) 
None

>  <ref_mols>  (312) 
c0692a,c1116a

>  <submitter_email>  (312) 
None

>  <ref_pdb>  (312) 
c0270a

>  <inchikey>  (312) 
KYVSQZAQXSJOJR-MRVPVSSYSA-N

>  <generation_date>  (312) 
None

>  <original ID>  (312) 
KYVSQZAQXSJOJR-MRVPVSSYSA-N

>  <tags>  (312) 
[]

>  <exports>  (312) 
nan

>  <method>  (312) 
None

>  <submitter_name>  (312) 
None

>  <original SMILES>  (312) 
CO[C@@H](C(=O)O)C(=O)Nc1cc(Cl)c(I)cc1N

>  <ref_url>  (312) 
None

$$$$
SOBSENOSSHZXOD-QMMMGPOBSA-N
     RDKit          3D

 18 18  0  0  0  0  0  0  0  0999 V2000
   21.4465   11.3935   10.4919 C   0  0  0  0  0  0  0  0  0  0  0  0
   20.0485   11.2480   10.7163 O   0  0  0  0  0  0  0  0  0  0  0  0
   19.3923   12.4415   11.1335 C   0  0  2  0  0  0  0  0  0  0  0  0
   19.8258   13.1092   12.4398 C   0  0  0  0  0  0  0  0  0  0  0  0
   19.0902   13.6185   13.2665 O   0  0  0  0  0  0  0  0  0  0  0  0
   21.1533   13.1445   12.6452 O   0  0  0  0  0  0  0  0  0  0  0  0
   17.8757   12.1588   11.2095 C   0  0  0  0  0  0  0  0  0  0  0  0
   17.0658   13.0083   11.5778 O   0  0  0  0  0  0  0  0  0  0  0  0
   17.4916   10.9172   10.7609 N   0  0  0  0  0  0  0  0  0  0  0  0
   16.3022   10.2270   11.0795 C   0  0  0  0  0  0  0  0  0  0  0  0
   15.8340    9.3218   10.1028 C   0  0  0  0  0  0  0  0  0  0  0  0
   16.3821    9.2954    8.8337 N   0  0  0  0  0  0  0  0  0  0  0  0
   14.9645    8.2853   10.4396 C   0  0  0  0  0  0  0  0  0  0  0  0
   14.4586    8.2211   11.7149 C   0  0  0  0  0  0  0  0  0  0  0  0
   14.7455    9.2563   12.5967 C   0  0  0  0  0  0  0  0  0  0  0  0
   14.0657    9.3223   13.7428 F   0  0  0  0  0  0  0  0  0  0  0  0
   15.6770   10.2463   12.3231 C   0  0  0  0  0  0  0  0  0  0  0  0
   16.0947   11.3470   13.8073 Br  0  0  0  0  0  0  0  0  0  0  0  0
  1  2  1  0
  3  2  1  1
  3  4  1  0
  4  5  2  0
  4  6  1  0
  3  7  1  0
  7  8  2  0
  7  9  1  0
  9 10  1  0
 10 11  2  0
 11 12  1  0
 11 13  1  0
 13 14  2  0
 14 15  1  0
 15 16  1  0
 15 17  2  0
 17 18  1  0
 17 10  1  0
M  END
>  <HIPPO ID>  (313) 
113311

>  <alias>  (313) 
None

>  <ref_mols>  (313) 
c0692a,c1116a

>  <submitter_email>  (313) 
None

>  <ref_pdb>  (313) 
c0270a

>  <inchikey>  (313) 
SOBSENOSSHZXOD-QMMMGPOBSA-N

>  <generation_date>  (313) 
None

>  <original ID>  (313) 
SOBSENOSSHZXOD-QMMMGPOBSA-N

>  <tags>  (313) 
[]

>  <exports>  (313) 
nan

>  <method>  (313) 
None

>  <submitter_name>  (313) 
None

>  <original SMILES>  (313) 
CO[C@H](C(=O)O)C(=O)Nc1c(N)ccc(F)c1Br

>  <ref_url>  (313) 
None

$$$$
SOBSENOSSHZXOD-MRVPVSSYSA-N
     RDKit          3D

 18 18  0  0  0  0  0  0  0  0999 V2000
   21.4540   11.3640   10.6007 C   0  0  0  0  0  0  0  0  0  0  0  0
   20.0409   11.4204   10.4215 O   0  0  0  0  0  0  0  0  0  0  0  0
   19.4348   12.4416   11.2127 C   0  0  1  0  0  0  0  0  0  0  0  0
   19.7539   13.8679   10.7800 C   0  0  0  0  0  0  0  0  0  0  0  0
   20.2082   14.2275    9.7027 O   0  0  0  0  0  0  0  0  0  0  0  0
   19.4993   14.7836   11.7342 O   0  0  0  0  0  0  0  0  0  0  0  0
   17.9167   12.2001   11.2727 C   0  0  0  0  0  0  0  0  0  0  0  0
   17.1456   13.0235   11.7592 O   0  0  0  0  0  0  0  0  0  0  0  0
   17.5015   11.0067   10.7126 N   0  0  0  0  0  0  0  0  0  0  0  0
   16.3220   10.2742   10.9890 C   0  0  0  0  0  0  0  0  0  0  0  0
   15.8440    9.4209    9.9626 C   0  0  0  0  0  0  0  0  0  0  0  0
   16.3103    9.4880    8.6537 N   0  0  0  0  0  0  0  0  0  0  0  0
   14.9860    8.3586   10.2442 C   0  0  0  0  0  0  0  0  0  0  0  0
   14.4865    8.2124   11.5154 C   0  0  0  0  0  0  0  0  0  0  0  0
   14.7814    9.1897   12.4569 C   0  0  0  0  0  0  0  0  0  0  0  0
   14.1221    9.1742   13.6166 F   0  0  0  0  0  0  0  0  0  0  0  0
   15.7008   10.2072   12.2357 C   0  0  0  0  0  0  0  0  0  0  0  0
   16.0778   11.2420   13.7804 Br  0  0  0  0  0  0  0  0  0  0  0  0
  1  2  1  0
  3  2  1  6
  3  4  1  0
  4  5  2  0
  4  6  1  0
  3  7  1  0
  7  8  2  0
  7  9  1  0
  9 10  1  0
 10 11  2  0
 11 12  1  0
 11 13  1  0
 13 14  2  0
 14 15  1  0
 15 16  1  0
 15 17  2  0
 17 18  1  0
 17 10  1  0
M  END
>  <HIPPO ID>  (314) 
113312

>  <alias>  (314) 
None

>  <ref_mols>  (314) 
c0692a,c1116a

>  <submitter_email>  (314) 
None

>  <ref_pdb>  (314) 
c0270a

>  <inchikey>  (314) 
SOBSENOSSHZXOD-MRVPVSSYSA-N

>  <generation_date>  (314) 
None

>  <original ID>  (314) 
SOBSENOSSHZXOD-MRVPVSSYSA-N

>  <tags>  (314) 
[]

>  <exports>  (314) 
nan

>  <method>  (314) 
None

>  <submitter_name>  (314) 
None

>  <original SMILES>  (314) 
CO[C@@H](C(=O)O)C(=O)Nc1c(N)ccc(F)c1Br

>  <ref_url>  (314) 
None

$$$$
AIKINYOIJINLCN-VIFPVBQESA-N
     RDKit          3D

 18 18  0  0  0  0  0  0  0  0999 V2000
   14.7827    9.8273    8.5725 C   0  0  0  0  0  0  0  0  0  0  0  0
   16.0473    9.2138    8.9439 N   0  0  0  0  0  0  0  0  0  0  0  0
   16.0039    9.1145   10.3511 C   0  0  0  0  0  0  0  0  0  0  0  0
   15.1557    8.1360   10.8890 C   0  0  0  0  0  0  0  0  0  0  0  0
   14.7058    8.2676   12.1872 C   0  0  0  0  0  0  0  0  0  0  0  0
   15.0499    9.4149   12.8917 C   0  0  0  0  0  0  0  0  0  0  0  0
   14.3066    9.8028   14.5523 Br  0  0  0  0  0  0  0  0  0  0  0  0
   15.9393   10.3524   12.3968 C   0  0  0  0  0  0  0  0  0  0  0  0
   16.4739   10.1771   11.1389 C   0  0  0  0  0  0  0  0  0  0  0  0
   17.5312   10.9764   10.6726 N   0  0  0  0  0  0  0  0  0  0  0  0
   17.9756   12.1297   11.2795 C   0  0  0  0  0  0  0  0  0  0  0  0
   17.2489   12.9070   11.9071 O   0  0  0  0  0  0  0  0  0  0  0  0
   19.4636   12.4408   11.1037 C   0  0  2  0  0  0  0  0  0  0  0  0
   20.0948   11.2771   10.5829 O   0  0  0  0  0  0  0  0  0  0  0  0
   21.5089   11.4011   10.4462 C   0  0  0  0  0  0  0  0  0  0  0  0
   20.0270   13.0902   12.3842 C   0  0  0  0  0  0  0  0  0  0  0  0
   21.1154   12.8106   12.8628 O   0  0  0  0  0  0  0  0  0  0  0  0
   19.2585   14.0727   12.9192 O   0  0  0  0  0  0  0  0  0  0  0  0
  1  2  1  0
  2  3  1  0
  3  4  2  0
  4  5  1  0
  5  6  2  0
  6  7  1  0
  6  8  1  0
  8  9  2  0
  9 10  1  0
 10 11  1  0
 11 12  2  0
 11 13  1  0
 13 14  1  1
 14 15  1  0
 13 16  1  0
 16 17  2  0
 16 18  1  0
  9  3  1  0
M  END
>  <HIPPO ID>  (315) 
113347

>  <alias>  (315) 
None

>  <ref_mols>  (315) 
c0692a,c1116a

>  <submitter_email>  (315) 
None

>  <ref_pdb>  (315) 
c0270a

>  <inchikey>  (315) 
AIKINYOIJINLCN-VIFPVBQESA-N

>  <generation_date>  (315) 
None

>  <original ID>  (315) 
AIKINYOIJINLCN-VIFPVBQESA-N

>  <tags>  (315) 
[]

>  <exports>  (315) 
nan

>  <method>  (315) 
None

>  <submitter_name>  (315) 
None

>  <original SMILES>  (315) 
CNc1ccc(Br)cc1NC(=O)[C@H](OC)C(=O)O

>  <ref_url>  (315) 
None

$$$$
AIKINYOIJINLCN-SECBINFHSA-N
     RDKit          3D

 18 18  0  0  0  0  0  0  0  0999 V2000
   15.7345    9.0031    8.5728 C   0  0  0  0  0  0  0  0  0  0  0  0
   15.6621   10.2427    9.2639 N   0  0  0  0  0  0  0  0  0  0  0  0
   15.6465    9.9906   10.6368 C   0  0  0  0  0  0  0  0  0  0  0  0
   14.8238    8.9777   11.1577 C   0  0  0  0  0  0  0  0  0  0  0  0
   14.6730    8.8342   12.5153 C   0  0  0  0  0  0  0  0  0  0  0  0
   15.1780    9.8335   13.3175 C   0  0  0  0  0  0  0  0  0  0  0  0
   14.7048    9.9138   15.1046 Br  0  0  0  0  0  0  0  0  0  0  0  0
   16.0264   10.8141   12.8367 C   0  0  0  0  0  0  0  0  0  0  0  0
   16.3507   10.8237   11.4975 C   0  0  0  0  0  0  0  0  0  0  0  0
   17.4709   11.5169   11.0058 N   0  0  0  0  0  0  0  0  0  0  0  0
   18.1503   12.4993   11.6926 C   0  0  0  0  0  0  0  0  0  0  0  0
   17.6310   13.1853   12.5703 O   0  0  0  0  0  0  0  0  0  0  0  0
   19.6281   12.6397   11.3148 C   0  0  1  0  0  0  0  0  0  0  0  0
   19.9933   11.5618   10.4557 O   0  0  0  0  0  0  0  0  0  0  0  0
   21.3761   11.2303   10.5626 C   0  0  0  0  0  0  0  0  0  0  0  0
   19.9389   14.0468   10.8163 C   0  0  0  0  0  0  0  0  0  0  0  0
   19.5775   15.1006   11.3113 O   0  0  0  0  0  0  0  0  0  0  0  0
   20.7320   14.0971    9.7274 O   0  0  0  0  0  0  0  0  0  0  0  0
  1  2  1  0
  2  3  1  0
  3  4  2  0
  4  5  1  0
  5  6  2  0
  6  7  1  0
  6  8  1  0
  8  9  2  0
  9 10  1  0
 10 11  1  0
 11 12  2  0
 11 13  1  0
 13 14  1  6
 14 15  1  0
 13 16  1  0
 16 17  2  0
 16 18  1  0
  9  3  1  0
M  END
>  <HIPPO ID>  (316) 
113348

>  <alias>  (316) 
None

>  <ref_mols>  (316) 
c0692a,c1116a

>  <submitter_email>  (316) 
None

>  <ref_pdb>  (316) 
c0270a

>  <inchikey>  (316) 
AIKINYOIJINLCN-SECBINFHSA-N

>  <generation_date>  (316) 
None

>  <original ID>  (316) 
AIKINYOIJINLCN-SECBINFHSA-N

>  <tags>  (316) 
[]

>  <exports>  (316) 
nan

>  <method>  (316) 
None

>  <submitter_name>  (316) 
None

>  <original SMILES>  (316) 
CNc1ccc(Br)cc1NC(=O)[C@@H](OC)C(=O)O

>  <ref_url>  (316) 
None

$$$$
QBHCUUKUOPJETE-QMMMGPOBSA-N
     RDKit          3D

 18 18  0  0  0  0  0  0  0  0999 V2000
   21.5129   11.4096   10.3460 C   0  0  0  0  0  0  0  0  0  0  0  0
   20.0947   11.3165   10.4618 O   0  0  0  0  0  0  0  0  0  0  0  0
   19.4785   12.4485   11.0854 C   0  0  2  0  0  0  0  0  0  0  0  0
   20.1285   12.9618   12.3674 C   0  0  0  0  0  0  0  0  0  0  0  0
   21.1313   12.5079   12.8927 O   0  0  0  0  0  0  0  0  0  0  0  0
   19.5582   14.0578   12.8990 O   0  0  0  0  0  0  0  0  0  0  0  0
   17.9901   12.1132   11.2940 C   0  0  0  0  0  0  0  0  0  0  0  0
   17.2437   12.7963   11.9974 O   0  0  0  0  0  0  0  0  0  0  0  0
   17.5471   11.0236   10.5672 N   0  0  0  0  0  0  0  0  0  0  0  0
   16.3975   10.2387   10.7793 C   0  0  0  0  0  0  0  0  0  0  0  0
   15.9656    9.4712    9.6922 C   0  0  0  0  0  0  0  0  0  0  0  0
   15.0212    8.4652    9.8490 C   0  0  0  0  0  0  0  0  0  0  0  0
   14.5773    8.1351   11.1184 C   0  0  0  0  0  0  0  0  0  0  0  0
   13.4783    6.3415   11.2647 I   0  0  0  0  0  0  0  0  0  0  0  0
   14.9340    8.9577   12.1965 C   0  0  0  0  0  0  0  0  0  0  0  0
   14.3634    8.6990   13.8032 Cl  0  0  0  0  0  0  0  0  0  0  0  0
   15.7836   10.0723   12.0294 C   0  0  0  0  0  0  0  0  0  0  0  0
   16.2191   10.7801   13.1843 N   0  0  0  0  0  0  0  0  0  0  0  0
  1  2  1  0
  3  2  1  1
  3  4  1  0
  4  5  2  0
  4  6  1  0
  3  7  1  0
  7  8  2  0
  7  9  1  0
  9 10  1  0
 10 11  2  0
 11 12  1  0
 12 13  2  0
 13 14  1  0
 13 15  1  0
 15 16  1  0
 15 17  2  0
 17 18  1  0
 17 10  1  0
M  END
>  <HIPPO ID>  (317) 
113349

>  <alias>  (317) 
None

>  <ref_mols>  (317) 
c0692a,c1116a

>  <submitter_email>  (317) 
None

>  <ref_pdb>  (317) 
c0270a

>  <inchikey>  (317) 
QBHCUUKUOPJETE-QMMMGPOBSA-N

>  <generation_date>  (317) 
None

>  <original ID>  (317) 
QBHCUUKUOPJETE-QMMMGPOBSA-N

>  <tags>  (317) 
[]

>  <exports>  (317) 
nan

>  <method>  (317) 
None

>  <submitter_name>  (317) 
None

>  <original SMILES>  (317) 
CO[C@H](C(=O)O)C(=O)Nc1ccc(I)c(Cl)c1N

>  <ref_url>  (317) 
None

$$$$
QBHCUUKUOPJETE-MRVPVSSYSA-N
     RDKit          3D

 18 18  0  0  0  0  0  0  0  0999 V2000
   21.5395   11.3984   10.5689 C   0  0  0  0  0  0  0  0  0  0  0  0
   20.1269   11.4568   10.3909 O   0  0  0  0  0  0  0  0  0  0  0  0
   19.5185   12.4436   11.2236 C   0  0  1  0  0  0  0  0  0  0  0  0
   19.7766   13.8780   10.7851 C   0  0  0  0  0  0  0  0  0  0  0  0
   20.1579   14.2535    9.6846 O   0  0  0  0  0  0  0  0  0  0  0  0
   19.5562   14.7822   11.7590 O   0  0  0  0  0  0  0  0  0  0  0  0
   18.0140   12.1524   11.3296 C   0  0  0  0  0  0  0  0  0  0  0  0
   17.2589   12.8514   12.0083 O   0  0  0  0  0  0  0  0  0  0  0  0
   17.5896   11.0554   10.6037 N   0  0  0  0  0  0  0  0  0  0  0  0
   16.4316   10.2754   10.7964 C   0  0  0  0  0  0  0  0  0  0  0  0
   16.0118    9.5028    9.7081 C   0  0  0  0  0  0  0  0  0  0  0  0
   15.0640    8.4979    9.8562 C   0  0  0  0  0  0  0  0  0  0  0  0
   14.6044    8.1722   11.1210 C   0  0  0  0  0  0  0  0  0  0  0  0
   13.5112    6.3737   11.2596 I   0  0  0  0  0  0  0  0  0  0  0  0
   14.9492    8.9984   12.2002 C   0  0  0  0  0  0  0  0  0  0  0  0
   14.3667    8.7411   13.8026 Cl  0  0  0  0  0  0  0  0  0  0  0  0
   15.8020   10.1124   12.0393 C   0  0  0  0  0  0  0  0  0  0  0  0
   16.2276   10.8226   13.1971 N   0  0  0  0  0  0  0  0  0  0  0  0
  1  2  1  0
  3  2  1  6
  3  4  1  0
  4  5  2  0
  4  6  1  0
  3  7  1  0
  7  8  2  0
  7  9  1  0
  9 10  1  0
 10 11  2  0
 11 12  1  0
 12 13  2  0
 13 14  1  0
 13 15  1  0
 15 16  1  0
 15 17  2  0
 17 18  1  0
 17 10  1  0
M  END
>  <HIPPO ID>  (318) 
113350

>  <alias>  (318) 
None

>  <ref_mols>  (318) 
c0692a,c1116a

>  <submitter_email>  (318) 
None

>  <ref_pdb>  (318) 
c0270a

>  <inchikey>  (318) 
QBHCUUKUOPJETE-MRVPVSSYSA-N

>  <generation_date>  (318) 
None

>  <original ID>  (318) 
QBHCUUKUOPJETE-MRVPVSSYSA-N

>  <tags>  (318) 
[]

>  <exports>  (318) 
nan

>  <method>  (318) 
None

>  <submitter_name>  (318) 
None

>  <original SMILES>  (318) 
CO[C@@H](C(=O)O)C(=O)Nc1ccc(I)c(Cl)c1N

>  <ref_url>  (318) 
None

$$$$
LDBFZAOGJJANLF-QMMMGPOBSA-N
     RDKit          3D

 18 18  0  0  0  0  0  0  0  0999 V2000
   21.4253   11.4105   10.4674 C   0  0  0  0  0  0  0  0  0  0  0  0
   20.0305   11.2496   10.7037 O   0  0  0  0  0  0  0  0  0  0  0  0
   19.3614   12.4266   11.1534 C   0  0  2  0  0  0  0  0  0  0  0  0
   19.8310   13.1136   12.4439 C   0  0  0  0  0  0  0  0  0  0  0  0
   19.1308   13.7050   13.2466 O   0  0  0  0  0  0  0  0  0  0  0  0
   21.1572   13.0723   12.6562 O   0  0  0  0  0  0  0  0  0  0  0  0
   17.8608   12.0699   11.2767 C   0  0  0  0  0  0  0  0  0  0  0  0
   17.0605   12.7338   11.9345 O   0  0  0  0  0  0  0  0  0  0  0  0
   17.4555   10.9709   10.5419 N   0  0  0  0  0  0  0  0  0  0  0  0
   16.3196   10.1907   10.8164 C   0  0  0  0  0  0  0  0  0  0  0  0
   15.7966   10.1328   12.0934 C   0  0  0  0  0  0  0  0  0  0  0  0
   14.9188    9.1106   12.4277 C   0  0  0  0  0  0  0  0  0  0  0  0
   14.3400    9.1704   14.2129 Br  0  0  0  0  0  0  0  0  0  0  0  0
   14.5416    8.1508   11.4826 C   0  0  0  0  0  0  0  0  0  0  0  0
   13.5650    6.7680   11.8261 Cl  0  0  0  0  0  0  0  0  0  0  0  0
   14.9531    8.3060   10.1700 C   0  0  0  0  0  0  0  0  0  0  0  0
   15.8033    9.3503    9.8269 C   0  0  0  0  0  0  0  0  0  0  0  0
   16.2567    9.4124    8.5179 N   0  0  0  0  0  0  0  0  0  0  0  0
  1  2  1  0
  3  2  1  1
  3  4  1  0
  4  5  2  0
  4  6  1  0
  3  7  1  0
  7  8  2  0
  7  9  1  0
  9 10  1  0
 10 11  2  0
 11 12  1  0
 12 13  1  0
 12 14  2  0
 14 15  1  0
 14 16  1  0
 16 17  2  0
 17 18  1  0
 17 10  1  0
M  END
>  <HIPPO ID>  (319) 
113363

>  <alias>  (319) 
None

>  <ref_mols>  (319) 
c0692a,c1116a

>  <submitter_email>  (319) 
None

>  <ref_pdb>  (319) 
c0270a

>  <inchikey>  (319) 
LDBFZAOGJJANLF-QMMMGPOBSA-N

>  <generation_date>  (319) 
None

>  <original ID>  (319) 
LDBFZAOGJJANLF-QMMMGPOBSA-N

>  <tags>  (319) 
[]

>  <exports>  (319) 
nan

>  <method>  (319) 
None

>  <submitter_name>  (319) 
None

>  <original SMILES>  (319) 
CO[C@H](C(=O)O)C(=O)Nc1cc(Br)c(Cl)cc1N

>  <ref_url>  (319) 
None

$$$$
LDBFZAOGJJANLF-MRVPVSSYSA-N
     RDKit          3D

 18 18  0  0  0  0  0  0  0  0999 V2000
   21.4945   11.3594   10.5017 C   0  0  0  0  0  0  0  0  0  0  0  0
   20.0765   11.4308   10.3710 O   0  0  0  0  0  0  0  0  0  0  0  0
   19.5118   12.4151   11.2321 C   0  0  1  0  0  0  0  0  0  0  0  0
   19.8061   13.8531   10.8235 C   0  0  0  0  0  0  0  0  0  0  0  0
   19.9723   14.2836    9.6913 O   0  0  0  0  0  0  0  0  0  0  0  0
   19.9415   14.6869   11.8709 O   0  0  0  0  0  0  0  0  0  0  0  0
   18.0065   12.1520   11.4072 C   0  0  0  0  0  0  0  0  0  0  0  0
   17.3223   12.8264   12.1768 O   0  0  0  0  0  0  0  0  0  0  0  0
   17.5073   11.0869   10.6734 N   0  0  0  0  0  0  0  0  0  0  0  0
   16.3580   10.3235   10.9697 C   0  0  0  0  0  0  0  0  0  0  0  0
   15.7888   10.3363   12.2267 C   0  0  0  0  0  0  0  0  0  0  0  0
   14.9208    9.3125   12.5971 C   0  0  0  0  0  0  0  0  0  0  0  0
   14.2889    9.4498   14.3555 Br  0  0  0  0  0  0  0  0  0  0  0  0
   14.5893    8.2850   11.7098 C   0  0  0  0  0  0  0  0  0  0  0  0
   13.6529    6.8871   12.1058 Cl  0  0  0  0  0  0  0  0  0  0  0  0
   15.0253    8.3739   10.4054 C   0  0  0  0  0  0  0  0  0  0  0  0
   15.8787    9.4070   10.0252 C   0  0  0  0  0  0  0  0  0  0  0  0
   16.4045    9.3392    8.7562 N   0  0  0  0  0  0  0  0  0  0  0  0
  1  2  1  0
  3  2  1  6
  3  4  1  0
  4  5  2  0
  4  6  1  0
  3  7  1  0
  7  8  2  0
  7  9  1  0
  9 10  1  0
 10 11  2  0
 11 12  1  0
 12 13  1  0
 12 14  2  0
 14 15  1  0
 14 16  1  0
 16 17  2  0
 17 18  1  0
 17 10  1  0
M  END
>  <HIPPO ID>  (320) 
113364

>  <alias>  (320) 
None

>  <ref_mols>  (320) 
c0692a,c1116a

>  <submitter_email>  (320) 
None

>  <ref_pdb>  (320) 
c0270a

>  <inchikey>  (320) 
LDBFZAOGJJANLF-MRVPVSSYSA-N

>  <generation_date>  (320) 
None

>  <original ID>  (320) 
LDBFZAOGJJANLF-MRVPVSSYSA-N

>  <tags>  (320) 
[]

>  <exports>  (320) 
nan

>  <method>  (320) 
None

>  <submitter_name>  (320) 
None

>  <original SMILES>  (320) 
CO[C@@H](C(=O)O)C(=O)Nc1cc(Br)c(Cl)cc1N

>  <ref_url>  (320) 
None

$$$$
AUEOCTDJMREVAV-JTQLQIEISA-N
     RDKit          3D

 18 18  0  0  0  0  0  0  0  0999 V2000
   21.4399   11.3273   10.3345 C   0  0  0  0  0  0  0  0  0  0  0  0
   20.0225   11.2645   10.4753 O   0  0  0  0  0  0  0  0  0  0  0  0
   19.4385   12.4221   11.0764 C   0  0  2  0  0  0  0  0  0  0  0  0
   20.0910   12.9055   12.3732 C   0  0  0  0  0  0  0  0  0  0  0  0
   21.1931   12.5782   12.7861 O   0  0  0  0  0  0  0  0  0  0  0  0
   19.3866   13.8032   13.0814 O   0  0  0  0  0  0  0  0  0  0  0  0
   17.9232   12.1821   11.2371 C   0  0  0  0  0  0  0  0  0  0  0  0
   17.1745   13.0373   11.7092 O   0  0  0  0  0  0  0  0  0  0  0  0
   17.4703   10.9739   10.7511 N   0  0  0  0  0  0  0  0  0  0  0  0
   16.3049   10.2545   11.1090 C   0  0  0  0  0  0  0  0  0  0  0  0
   15.8219    9.3457   10.1451 C   0  0  0  0  0  0  0  0  0  0  0  0
   16.3309    9.3200    8.8551 N   0  0  0  0  0  0  0  0  0  0  0  0
   14.9802    8.3013   10.5147 C   0  0  0  0  0  0  0  0  0  0  0  0
   14.5349    8.2127   11.8152 C   0  0  0  0  0  0  0  0  0  0  0  0
   14.8431    9.2274   12.7292 C   0  0  0  0  0  0  0  0  0  0  0  0
   14.2181    9.2005   14.0843 C   0  0  0  0  0  0  0  0  0  0  0  0
   15.7438   10.2573   12.3960 C   0  0  0  0  0  0  0  0  0  0  0  0
   16.0758   11.2745   13.4481 C   0  0  0  0  0  0  0  0  0  0  0  0
  1  2  1  0
  3  2  1  1
  3  4  1  0
  4  5  2  0
  4  6  1  0
  3  7  1  0
  7  8  2  0
  7  9  1  0
  9 10  1  0
 10 11  2  0
 11 12  1  0
 11 13  1  0
 13 14  2  0
 14 15  1  0
 15 16  1  0
 15 17  2  0
 17 18  1  0
 17 10  1  0
M  END
>  <HIPPO ID>  (321) 
113366

>  <alias>  (321) 
None

>  <ref_mols>  (321) 
c0692a,c1116a

>  <submitter_email>  (321) 
None

>  <ref_pdb>  (321) 
c0270a

>  <inchikey>  (321) 
AUEOCTDJMREVAV-JTQLQIEISA-N

>  <generation_date>  (321) 
None

>  <original ID>  (321) 
AUEOCTDJMREVAV-JTQLQIEISA-N

>  <tags>  (321) 
[]

>  <exports>  (321) 
nan

>  <method>  (321) 
None

>  <submitter_name>  (321) 
None

>  <original SMILES>  (321) 
CO[C@H](C(=O)O)C(=O)Nc1c(N)ccc(C)c1C

>  <ref_url>  (321) 
None

$$$$
AUEOCTDJMREVAV-SNVBAGLBSA-N
     RDKit          3D

 18 18  0  0  0  0  0  0  0  0999 V2000
   21.4224   11.3576   10.5704 C   0  0  0  0  0  0  0  0  0  0  0  0
   20.0091   11.4335   10.3986 O   0  0  0  0  0  0  0  0  0  0  0  0
   19.4213   12.4492   11.2076 C   0  0  1  0  0  0  0  0  0  0  0  0
   19.7600   13.8770   10.7923 C   0  0  0  0  0  0  0  0  0  0  0  0
   20.1024   14.2600    9.6817 O   0  0  0  0  0  0  0  0  0  0  0  0
   19.6733   14.7617   11.8057 O   0  0  0  0  0  0  0  0  0  0  0  0
   17.8991   12.2354   11.2900 C   0  0  0  0  0  0  0  0  0  0  0  0
   17.1629   13.0729   11.8089 O   0  0  0  0  0  0  0  0  0  0  0  0
   17.4546   11.0462   10.7456 N   0  0  0  0  0  0  0  0  0  0  0  0
   16.3089   10.2752   11.0755 C   0  0  0  0  0  0  0  0  0  0  0  0
   15.8757    9.3504   10.0964 C   0  0  0  0  0  0  0  0  0  0  0  0
   16.1435    9.5301    8.7470 N   0  0  0  0  0  0  0  0  0  0  0  0
   14.9996    8.3185   10.4196 C   0  0  0  0  0  0  0  0  0  0  0  0
   14.5591    8.1802   11.7171 C   0  0  0  0  0  0  0  0  0  0  0  0
   14.8716    9.1602   12.6676 C   0  0  0  0  0  0  0  0  0  0  0  0
   14.2490    9.0766   14.0220 C   0  0  0  0  0  0  0  0  0  0  0  0
   15.7503   10.2208   12.3644 C   0  0  0  0  0  0  0  0  0  0  0  0
   16.0464   11.2229   13.4423 C   0  0  0  0  0  0  0  0  0  0  0  0
  1  2  1  0
  3  2  1  6
  3  4  1  0
  4  5  2  0
  4  6  1  0
  3  7  1  0
  7  8  2  0
  7  9  1  0
  9 10  1  0
 10 11  2  0
 11 12  1  0
 11 13  1  0
 13 14  2  0
 14 15  1  0
 15 16  1  0
 15 17  2  0
 17 18  1  0
 17 10  1  0
M  END
>  <HIPPO ID>  (322) 
113367

>  <alias>  (322) 
None

>  <ref_mols>  (322) 
c0692a,c1116a

>  <submitter_email>  (322) 
None

>  <ref_pdb>  (322) 
c0270a

>  <inchikey>  (322) 
AUEOCTDJMREVAV-SNVBAGLBSA-N

>  <generation_date>  (322) 
None

>  <original ID>  (322) 
AUEOCTDJMREVAV-SNVBAGLBSA-N

>  <tags>  (322) 
[]

>  <exports>  (322) 
nan

>  <method>  (322) 
None

>  <submitter_name>  (322) 
None

>  <original SMILES>  (322) 
CO[C@@H](C(=O)O)C(=O)Nc1c(N)ccc(C)c1C

>  <ref_url>  (322) 
None

$$$$
IKFYSNXEBZEPJF-UHFFFAOYSA-N
     RDKit          3D

 18 18  0  0  0  0  0  0  0  0999 V2000
   24.0918   12.9082    8.7207 C   0  0  0  0  0  0  0  0  0  0  0  0
   23.0948   12.9469    9.3878 C   0  0  0  0  0  0  0  0  0  0  0  0
   21.8756   13.0056   10.1966 C   0  0  0  0  0  0  0  0  0  0  0  0
   21.3074   11.6180   10.5157 C   0  0  0  0  0  0  0  0  0  0  0  0
   19.8735   11.5600   10.4212 O   0  0  0  0  0  0  0  0  0  0  0  0
   19.2021   12.4720   11.2778 C   0  0  0  0  0  0  0  0  0  0  0  0
   17.7949   11.9877   11.6288 C   0  0  0  0  0  0  0  0  0  0  0  0
   17.2406   12.3769   12.6556 O   0  0  0  0  0  0  0  0  0  0  0  0
   17.2338   11.1296   10.7088 N   0  0  0  0  0  0  0  0  0  0  0  0
   16.1738   10.2372   10.9437 C   0  0  0  0  0  0  0  0  0  0  0  0
   15.8180    9.8498   12.2192 C   0  0  0  0  0  0  0  0  0  0  0  0
   14.9422    8.7856   12.3966 C   0  0  0  0  0  0  0  0  0  0  0  0
   14.4408    8.5395   14.0079 Cl  0  0  0  0  0  0  0  0  0  0  0  0
   14.4638    8.0535   11.3084 C   0  0  0  0  0  0  0  0  0  0  0  0
   13.4273    6.4690   11.4482 Br  0  0  0  0  0  0  0  0  0  0  0  0
   14.6772    8.5529   10.0368 C   0  0  0  0  0  0  0  0  0  0  0  0
   15.4867    9.6749    9.8620 C   0  0  0  0  0  0  0  0  0  0  0  0
   15.3855   10.3709    8.6627 N   0  0  0  0  0  0  0  0  0  0  0  0
  1  2  3  0
  2  3  1  0
  3  4  1  0
  4  5  1  0
  5  6  1  0
  6  7  1  0
  7  8  2  0
  7  9  1  0
  9 10  1  0
 10 11  2  0
 11 12  1  0
 12 13  1  0
 12 14  2  0
 14 15  1  0
 14 16  1  0
 16 17  2  0
 17 18  1  0
 17 10  1  0
M  END
>  <HIPPO ID>  (323) 
113421

>  <alias>  (323) 
None

>  <ref_mols>  (323) 
c0692a,c1116a

>  <submitter_email>  (323) 
None

>  <ref_pdb>  (323) 
c0270a

>  <inchikey>  (323) 
IKFYSNXEBZEPJF-UHFFFAOYSA-N

>  <generation_date>  (323) 
None

>  <original ID>  (323) 
IKFYSNXEBZEPJF-UHFFFAOYSA-N

>  <tags>  (323) 
[]

>  <exports>  (323) 
nan

>  <method>  (323) 
None

>  <submitter_name>  (323) 
None

>  <original SMILES>  (323) 
C#CCCOCC(=O)Nc1cc(Cl)c(Br)cc1N

>  <ref_url>  (323) 
None

$$$$
FFISUUNHAOGBIN-UHFFFAOYSA-N
     RDKit          3D

 18 18  0  0  0  0  0  0  0  0999 V2000
   24.2423   13.1930    9.0092 C   0  0  0  0  0  0  0  0  0  0  0  0
   23.1864   13.1649    9.5787 C   0  0  0  0  0  0  0  0  0  0  0  0
   21.8857   13.1389   10.2452 C   0  0  0  0  0  0  0  0  0  0  0  0
   21.3940   11.7112   10.5179 C   0  0  0  0  0  0  0  0  0  0  0  0
   19.9637   11.5822   10.4403 O   0  0  0  0  0  0  0  0  0  0  0  0
   19.2696   12.5033   11.2650 C   0  0  0  0  0  0  0  0  0  0  0  0
   17.8263   12.0903   11.5264 C   0  0  0  0  0  0  0  0  0  0  0  0
   17.1633   12.6798   12.3782 O   0  0  0  0  0  0  0  0  0  0  0  0
   17.3686   11.0585   10.7368 N   0  0  0  0  0  0  0  0  0  0  0  0
   16.2609   10.2354   11.0115 C   0  0  0  0  0  0  0  0  0  0  0  0
   15.7033   10.1795   12.2731 C   0  0  0  0  0  0  0  0  0  0  0  0
   14.8537    9.1314   12.6044 C   0  0  0  0  0  0  0  0  0  0  0  0
   14.2358    9.1894   14.3741 Br  0  0  0  0  0  0  0  0  0  0  0  0
   14.5202    8.1489   11.6691 C   0  0  0  0  0  0  0  0  0  0  0  0
   13.5492    6.7590   12.0002 Cl  0  0  0  0  0  0  0  0  0  0  0  0
   14.9648    8.2915   10.3695 C   0  0  0  0  0  0  0  0  0  0  0  0
   15.8107    9.3458   10.0309 C   0  0  0  0  0  0  0  0  0  0  0  0
   16.3558    9.3357    8.7680 N   0  0  0  0  0  0  0  0  0  0  0  0
  1  2  3  0
  2  3  1  0
  3  4  1  0
  4  5  1  0
  5  6  1  0
  6  7  1  0
  7  8  2  0
  7  9  1  0
  9 10  1  0
 10 11  2  0
 11 12  1  0
 12 13  1  0
 12 14  2  0
 14 15  1  0
 14 16  1  0
 16 17  2  0
 17 18  1  0
 17 10  1  0
M  END
>  <HIPPO ID>  (324) 
113422

>  <alias>  (324) 
None

>  <ref_mols>  (324) 
c0692a,c1116a

>  <submitter_email>  (324) 
None

>  <ref_pdb>  (324) 
c0270a

>  <inchikey>  (324) 
FFISUUNHAOGBIN-UHFFFAOYSA-N

>  <generation_date>  (324) 
None

>  <original ID>  (324) 
FFISUUNHAOGBIN-UHFFFAOYSA-N

>  <tags>  (324) 
[]

>  <exports>  (324) 
nan

>  <method>  (324) 
None

>  <submitter_name>  (324) 
None

>  <original SMILES>  (324) 
C#CCCOCC(=O)Nc1cc(Br)c(Cl)cc1N

>  <ref_url>  (324) 
None

$$$$
NDHUFPJZLRGZQU-UHFFFAOYSA-N
     RDKit          3D

 18 18  0  0  0  0  0  0  0  0999 V2000
   21.1608   10.2736    9.5964 C   0  0  0  0  0  0  0  0  0  0  0  0
   21.8354   11.1843    9.9579 C   0  0  0  0  0  0  0  0  0  0  0  0
   22.2454   12.4427   10.5272 C   0  0  0  0  0  0  0  0  0  0  0  0
   21.4973   12.5802   11.8559 C   0  0  0  0  0  0  0  0  0  0  0  0
   20.1624   12.0483   11.8319 O   0  0  0  0  0  0  0  0  0  0  0  0
   19.2285   12.8190   11.1224 C   0  0  0  0  0  0  0  0  0  0  0  0
   17.7831   12.3450   11.3200 C   0  0  0  0  0  0  0  0  0  0  0  0
   16.9640   13.1140   11.8273 O   0  0  0  0  0  0  0  0  0  0  0  0
   17.4723   11.0922   10.8307 N   0  0  0  0  0  0  0  0  0  0  0  0
   16.3325   10.3030   11.1581 C   0  0  0  0  0  0  0  0  0  0  0  0
   15.8670    9.4070   10.1696 C   0  0  0  0  0  0  0  0  0  0  0  0
   16.3765    9.4040    8.8816 N   0  0  0  0  0  0  0  0  0  0  0  0
   15.0228    8.3499   10.5058 C   0  0  0  0  0  0  0  0  0  0  0  0
   14.5545    8.2286   11.7947 C   0  0  0  0  0  0  0  0  0  0  0  0
   14.8565    9.2144   12.7385 C   0  0  0  0  0  0  0  0  0  0  0  0
   14.2183    9.1528   14.0864 C   0  0  0  0  0  0  0  0  0  0  0  0
   15.7692   10.2480   12.4450 C   0  0  0  0  0  0  0  0  0  0  0  0
   16.1094   11.2061   13.5493 C   0  0  0  0  0  0  0  0  0  0  0  0
  1  2  3  0
  2  3  1  0
  3  4  1  0
  4  5  1  0
  5  6  1  0
  6  7  1  0
  7  8  2  0
  7  9  1  0
  9 10  1  0
 10 11  2  0
 11 12  1  0
 11 13  1  0
 13 14  2  0
 14 15  1  0
 15 16  1  0
 15 17  2  0
 17 18  1  0
 17 10  1  0
M  END
>  <HIPPO ID>  (325) 
113424

>  <alias>  (325) 
None

>  <ref_mols>  (325) 
c0692a,c1116a

>  <submitter_email>  (325) 
None

>  <ref_pdb>  (325) 
c0270a

>  <inchikey>  (325) 
NDHUFPJZLRGZQU-UHFFFAOYSA-N

>  <generation_date>  (325) 
None

>  <original ID>  (325) 
NDHUFPJZLRGZQU-UHFFFAOYSA-N

>  <tags>  (325) 
[]

>  <exports>  (325) 
nan

>  <method>  (325) 
None

>  <submitter_name>  (325) 
None

>  <original SMILES>  (325) 
C#CCCOCC(=O)Nc1c(N)ccc(C)c1C

>  <ref_url>  (325) 
None

$$$$
SRZPFJCZOPWMDC-VIFPVBQESA-N
     RDKit          3D

 18 18  0  0  0  0  0  0  0  0999 V2000
   21.6155   11.4162   10.2933 C   0  0  0  0  0  0  0  0  0  0  0  0
   20.1982   11.3235   10.4187 O   0  0  0  0  0  0  0  0  0  0  0  0
   19.5950   12.4498   11.0644 C   0  0  2  0  0  0  0  0  0  0  0  0
   20.2330   12.8892   12.3801 C   0  0  0  0  0  0  0  0  0  0  0  0
   21.2721   12.4548   12.8512 O   0  0  0  0  0  0  0  0  0  0  0  0
   19.5964   13.8811   13.0270 O   0  0  0  0  0  0  0  0  0  0  0  0
   18.0957   12.1526   11.2256 C   0  0  0  0  0  0  0  0  0  0  0  0
   17.3333   12.9020   11.8400 O   0  0  0  0  0  0  0  0  0  0  0  0
   17.6654   11.0148   10.5726 N   0  0  0  0  0  0  0  0  0  0  0  0
   16.4775   10.2911   10.7836 C   0  0  0  0  0  0  0  0  0  0  0  0
   16.0565    9.4704    9.7261 C   0  0  0  0  0  0  0  0  0  0  0  0
   15.0371    8.5491    9.8994 C   0  0  0  0  0  0  0  0  0  0  0  0
   14.5214    8.3702   11.1631 C   0  0  0  0  0  0  0  0  0  0  0  0
   13.6010    7.4091   11.3369 F   0  0  0  0  0  0  0  0  0  0  0  0
   14.9083    9.1929   12.2309 C   0  0  0  0  0  0  0  0  0  0  0  0
   14.3839    8.9659   13.6075 C   0  0  0  0  0  0  0  0  0  0  0  0
   15.8057   10.2480   12.0192 C   0  0  0  0  0  0  0  0  0  0  0  0
   16.2061   11.0217   13.1373 N   0  0  0  0  0  0  0  0  0  0  0  0
  1  2  1  0
  3  2  1  1
  3  4  1  0
  4  5  2  0
  4  6  1  0
  3  7  1  0
  7  8  2  0
  7  9  1  0
  9 10  1  0
 10 11  2  0
 11 12  1  0
 12 13  2  0
 13 14  1  0
 13 15  1  0
 15 16  1  0
 15 17  2  0
 17 18  1  0
 17 10  1  0
M  END
>  <HIPPO ID>  (326) 
113428

>  <alias>  (326) 
None

>  <ref_mols>  (326) 
c0692a,c1116a

>  <submitter_email>  (326) 
None

>  <ref_pdb>  (326) 
c0270a

>  <inchikey>  (326) 
SRZPFJCZOPWMDC-VIFPVBQESA-N

>  <generation_date>  (326) 
None

>  <original ID>  (326) 
SRZPFJCZOPWMDC-VIFPVBQESA-N

>  <tags>  (326) 
[]

>  <exports>  (326) 
nan

>  <method>  (326) 
None

>  <submitter_name>  (326) 
None

>  <original SMILES>  (326) 
CO[C@H](C(=O)O)C(=O)Nc1ccc(F)c(C)c1N

>  <ref_url>  (326) 
None

$$$$
SRZPFJCZOPWMDC-SECBINFHSA-N
     RDKit          3D

 18 18  0  0  0  0  0  0  0  0999 V2000
   21.6536   11.4140   10.5291 C   0  0  0  0  0  0  0  0  0  0  0  0
   20.2406   11.4720   10.3653 O   0  0  0  0  0  0  0  0  0  0  0  0
   19.6480   12.4631   11.2014 C   0  0  1  0  0  0  0  0  0  0  0  0
   19.9577   13.8957   10.7847 C   0  0  0  0  0  0  0  0  0  0  0  0
   19.9753   14.3531    9.6513 O   0  0  0  0  0  0  0  0  0  0  0  0
   20.2950   14.6857   11.8211 O   0  0  0  0  0  0  0  0  0  0  0  0
   18.1381   12.2249   11.2805 C   0  0  0  0  0  0  0  0  0  0  0  0
   17.3977   12.9888   11.9037 O   0  0  0  0  0  0  0  0  0  0  0  0
   17.7039   11.0930   10.6179 N   0  0  0  0  0  0  0  0  0  0  0  0
   16.5140   10.3651   10.8141 C   0  0  0  0  0  0  0  0  0  0  0  0
   16.1119    9.5316    9.7577 C   0  0  0  0  0  0  0  0  0  0  0  0
   15.0936    8.6061    9.9199 C   0  0  0  0  0  0  0  0  0  0  0  0
   14.5577    8.4347   11.1755 C   0  0  0  0  0  0  0  0  0  0  0  0
   13.6428    7.4671   11.3427 F   0  0  0  0  0  0  0  0  0  0  0  0
   14.9265    9.2664   12.2430 C   0  0  0  0  0  0  0  0  0  0  0  0
   14.3849    9.0450   13.6139 C   0  0  0  0  0  0  0  0  0  0  0  0
   15.8239   10.3247   12.0385 C   0  0  0  0  0  0  0  0  0  0  0  0
   16.2059   11.1050   13.1580 N   0  0  0  0  0  0  0  0  0  0  0  0
  1  2  1  0
  3  2  1  6
  3  4  1  0
  4  5  2  0
  4  6  1  0
  3  7  1  0
  7  8  2  0
  7  9  1  0
  9 10  1  0
 10 11  2  0
 11 12  1  0
 12 13  2  0
 13 14  1  0
 13 15  1  0
 15 16  1  0
 15 17  2  0
 17 18  1  0
 17 10  1  0
M  END
>  <HIPPO ID>  (327) 
113429

>  <alias>  (327) 
None

>  <ref_mols>  (327) 
c0692a,c1116a

>  <submitter_email>  (327) 
None

>  <ref_pdb>  (327) 
c0270a

>  <inchikey>  (327) 
SRZPFJCZOPWMDC-SECBINFHSA-N

>  <generation_date>  (327) 
None

>  <original ID>  (327) 
SRZPFJCZOPWMDC-SECBINFHSA-N

>  <tags>  (327) 
[]

>  <exports>  (327) 
nan

>  <method>  (327) 
None

>  <submitter_name>  (327) 
None

>  <original SMILES>  (327) 
CO[C@@H](C(=O)O)C(=O)Nc1ccc(F)c(C)c1N

>  <ref_url>  (327) 
None

$$$$
LDWTVSQCQLYADB-UHFFFAOYSA-N
     RDKit          3D

 18 18  0  0  0  0  0  0  0  0999 V2000
   21.3780   10.2167    9.9654 C   0  0  0  0  0  0  0  0  0  0  0  0
   21.9141   10.9320   10.7512 C   0  0  0  0  0  0  0  0  0  0  0  0
   22.1478   12.1435   11.4993 C   0  0  0  0  0  0  0  0  0  0  0  0
   21.3214   13.2256   10.7824 C   0  0  0  0  0  0  0  0  0  0  0  0
   19.9587   12.8036   10.5229 O   0  0  0  0  0  0  0  0  0  0  0  0
   19.1239   13.0275   11.6325 C   0  0  0  0  0  0  0  0  0  0  0  0
   17.7221   12.4203   11.5777 C   0  0  0  0  0  0  0  0  0  0  0  0
   16.8135   12.9582   12.2172 O   0  0  0  0  0  0  0  0  0  0  0  0
   17.5665   11.2703   10.8350 N   0  0  0  0  0  0  0  0  0  0  0  0
   16.4739   10.3698   10.9358 C   0  0  0  0  0  0  0  0  0  0  0  0
   16.1366    9.6191    9.8063 C   0  0  0  0  0  0  0  0  0  0  0  0
   15.2000    8.5897    9.8617 C   0  0  0  0  0  0  0  0  0  0  0  0
   14.6752    8.1987   11.0812 C   0  0  0  0  0  0  0  0  0  0  0  0
   13.5658    6.4074   11.0804 I   0  0  0  0  0  0  0  0  0  0  0  0
   14.9721    8.9636   12.2148 C   0  0  0  0  0  0  0  0  0  0  0  0
   14.3469    8.6008   13.7791 Cl  0  0  0  0  0  0  0  0  0  0  0  0
   15.8071   10.1017   12.1453 C   0  0  0  0  0  0  0  0  0  0  0  0
   16.1660   10.7591   13.3607 N   0  0  0  0  0  0  0  0  0  0  0  0
  1  2  3  0
  2  3  1  0
  3  4  1  0
  4  5  1  0
  5  6  1  0
  6  7  1  0
  7  8  2  0
  7  9  1  0
  9 10  1  0
 10 11  2  0
 11 12  1  0
 12 13  2  0
 13 14  1  0
 13 15  1  0
 15 16  1  0
 15 17  2  0
 17 18  1  0
 17 10  1  0
M  END
>  <HIPPO ID>  (328) 
113436

>  <alias>  (328) 
None

>  <ref_mols>  (328) 
c0692a,c1116a

>  <submitter_email>  (328) 
None

>  <ref_pdb>  (328) 
c0270a

>  <inchikey>  (328) 
LDWTVSQCQLYADB-UHFFFAOYSA-N

>  <generation_date>  (328) 
None

>  <original ID>  (328) 
LDWTVSQCQLYADB-UHFFFAOYSA-N

>  <tags>  (328) 
[]

>  <exports>  (328) 
nan

>  <method>  (328) 
None

>  <submitter_name>  (328) 
None

>  <original SMILES>  (328) 
C#CCCOCC(=O)Nc1ccc(I)c(Cl)c1N

>  <ref_url>  (328) 
None

$$$$
XYXVYUBGKHRLOY-UHFFFAOYSA-N
     RDKit          3D

 18 18  0  0  0  0  0  0  0  0999 V2000
   24.1010   12.2220    8.9178 C   0  0  0  0  0  0  0  0  0  0  0  0
   23.1469   11.7387    9.4635 C   0  0  0  0  0  0  0  0  0  0  0  0
   21.9714   11.1279   10.0890 C   0  0  0  0  0  0  0  0  0  0  0  0
   21.1176   12.1774   10.7650 C   0  0  0  0  0  0  0  0  0  0  0  0
   19.7626   11.7118   10.8577 O   0  0  0  0  0  0  0  0  0  0  0  0
   18.9647   12.7282   11.4396 C   0  0  0  0  0  0  0  0  0  0  0  0
   17.5837   12.2774   11.8913 C   0  0  0  0  0  0  0  0  0  0  0  0
   17.1409   12.6826   12.9660 O   0  0  0  0  0  0  0  0  0  0  0  0
   16.9071   11.4439   11.0347 N   0  0  0  0  0  0  0  0  0  0  0  0
   15.8623   10.5682   11.4017 C   0  0  0  0  0  0  0  0  0  0  0  0
   15.5919   10.2846   12.7214 C   0  0  0  0  0  0  0  0  0  0  0  0
   14.8540    9.1571   13.0284 C   0  0  0  0  0  0  0  0  0  0  0  0
   14.3283    8.9657   14.8026 Br  0  0  0  0  0  0  0  0  0  0  0  0
   14.4429    8.2522   12.0604 C   0  0  0  0  0  0  0  0  0  0  0  0
   14.5417    8.6338   10.7374 C   0  0  0  0  0  0  0  0  0  0  0  0
   15.1800    9.8415   10.4100 C   0  0  0  0  0  0  0  0  0  0  0  0
   15.3683   10.1598    9.0355 N   0  0  0  0  0  0  0  0  0  0  0  0
   16.4637    9.2824    8.6982 C   0  0  0  0  0  0  0  0  0  0  0  0
  1  2  3  0
  2  3  1  0
  3  4  1  0
  4  5  1  0
  5  6  1  0
  6  7  1  0
  7  8  2  0
  7  9  1  0
  9 10  1  0
 10 11  2  0
 11 12  1  0
 12 13  1  0
 12 14  2  0
 14 15  1  0
 15 16  2  0
 16 17  1  0
 17 18  1  0
 16 10  1  0
M  END
>  <HIPPO ID>  (329) 
113437

>  <alias>  (329) 
None

>  <ref_mols>  (329) 
c0692a,c1116a

>  <submitter_email>  (329) 
None

>  <ref_pdb>  (329) 
c0270a

>  <inchikey>  (329) 
XYXVYUBGKHRLOY-UHFFFAOYSA-N

>  <generation_date>  (329) 
None

>  <original ID>  (329) 
XYXVYUBGKHRLOY-UHFFFAOYSA-N

>  <tags>  (329) 
[]

>  <exports>  (329) 
nan

>  <method>  (329) 
None

>  <submitter_name>  (329) 
None

>  <original SMILES>  (329) 
C#CCCOCC(=O)Nc1cc(Br)ccc1NC

>  <ref_url>  (329) 
None

$$$$
ZMWDLUQMBPPISH-UHFFFAOYSA-N
     RDKit          3D

 18 18  0  0  0  0  0  0  0  0999 V2000
   16.2972    9.5245    8.6944 N   0  0  0  0  0  0  0  0  0  0  0  0
   15.9548    9.3557   10.0192 C   0  0  0  0  0  0  0  0  0  0  0  0
   15.0242    8.3437   10.2681 C   0  0  0  0  0  0  0  0  0  0  0  0
   14.4650    8.2334   11.5143 C   0  0  0  0  0  0  0  0  0  0  0  0
   13.5254    7.2985   11.7161 F   0  0  0  0  0  0  0  0  0  0  0  0
   14.7753    9.1756   12.4847 C   0  0  0  0  0  0  0  0  0  0  0  0
   14.1132    9.2319   13.6391 F   0  0  0  0  0  0  0  0  0  0  0  0
   15.7077   10.1662   12.2644 C   0  0  0  0  0  0  0  0  0  0  0  0
   16.3350   10.2637   11.0317 C   0  0  0  0  0  0  0  0  0  0  0  0
   17.4027   11.1840   10.8458 N   0  0  0  0  0  0  0  0  0  0  0  0
   17.6486   12.2724   11.6645 C   0  0  0  0  0  0  0  0  0  0  0  0
   16.8529   12.7215   12.4918 O   0  0  0  0  0  0  0  0  0  0  0  0
   19.0258   12.9313   11.5711 C   0  0  0  0  0  0  0  0  0  0  0  0
   19.8024   12.6491   10.4369 O   0  0  0  0  0  0  0  0  0  0  0  0
   21.1545   13.1099   10.5821 C   0  0  0  0  0  0  0  0  0  0  0  0
   22.0495   12.0682   11.2376 C   0  0  0  0  0  0  0  0  0  0  0  0
   21.6308   10.6803   10.8494 C   0  0  0  0  0  0  0  0  0  0  0  0
   21.5043   10.5651    9.4611 O   0  0  0  0  0  0  0  0  0  0  0  0
  1  2  1  0
  2  3  2  0
  3  4  1  0
  4  5  1  0
  4  6  2  0
  6  7  1  0
  6  8  1  0
  8  9  2  0
  9 10  1  0
 10 11  1  0
 11 12  2  0
 11 13  1  0
 13 14  1  0
 14 15  1  0
 15 16  1  0
 16 17  1  0
 17 18  1  0
  9  2  1  0
M  END
>  <HIPPO ID>  (330) 
113452

>  <alias>  (330) 
None

>  <ref_mols>  (330) 
c0692a,c1116a

>  <submitter_email>  (330) 
None

>  <ref_pdb>  (330) 
c0270a

>  <inchikey>  (330) 
ZMWDLUQMBPPISH-UHFFFAOYSA-N

>  <generation_date>  (330) 
None

>  <original ID>  (330) 
ZMWDLUQMBPPISH-UHFFFAOYSA-N

>  <tags>  (330) 
[]

>  <exports>  (330) 
nan

>  <method>  (330) 
None

>  <submitter_name>  (330) 
None

>  <original SMILES>  (330) 
Nc1cc(F)c(F)cc1NC(=O)COCCCO

>  <ref_url>  (330) 
None

$$$$
CUUCSEXQCXTLTA-UHFFFAOYSA-N
     RDKit          3D

 18 18  0  0  0  0  0  0  0  0999 V2000
   16.1285   10.8104   13.1855 N   0  0  0  0  0  0  0  0  0  0  0  0
   15.7428   10.1497   11.9929 C   0  0  0  0  0  0  0  0  0  0  0  0
   16.4293   10.2444   10.7786 C   0  0  0  0  0  0  0  0  0  0  0  0
   17.5858   11.0156   10.6064 N   0  0  0  0  0  0  0  0  0  0  0  0
   17.9697   12.1262   11.3218 C   0  0  0  0  0  0  0  0  0  0  0  0
   17.2241   12.8249   12.0095 O   0  0  0  0  0  0  0  0  0  0  0  0
   19.4391   12.4758   11.1607 C   0  0  0  0  0  0  0  0  0  0  0  0
   20.1492   11.3876   10.5771 O   0  0  0  0  0  0  0  0  0  0  0  0
   21.5300   11.6943   10.3971 C   0  0  0  0  0  0  0  0  0  0  0  0
   22.3241   11.5178   11.6816 C   0  0  0  0  0  0  0  0  0  0  0  0
   23.7065   12.1199   11.5109 C   0  0  0  0  0  0  0  0  0  0  0  0
   23.5801   13.5356   11.4599 O   0  0  0  0  0  0  0  0  0  0  0  0
   16.0368    9.4508    9.6865 C   0  0  0  0  0  0  0  0  0  0  0  0
   15.0157    8.5175    9.8033 C   0  0  0  0  0  0  0  0  0  0  0  0
   14.4445    8.3176   11.0356 C   0  0  0  0  0  0  0  0  0  0  0  0
   13.5017    7.3740   11.1698 F   0  0  0  0  0  0  0  0  0  0  0  0
   14.7987    9.1369   12.1024 C   0  0  0  0  0  0  0  0  0  0  0  0
   14.1751    9.0404   13.2793 F   0  0  0  0  0  0  0  0  0  0  0  0
  1  2  1  0
  2  3  2  0
  3  4  1  0
  4  5  1  0
  5  6  2  0
  5  7  1  0
  7  8  1  0
  8  9  1  0
  9 10  1  0
 10 11  1  0
 11 12  1  0
  3 13  1  0
 13 14  2  0
 14 15  1  0
 15 16  1  0
 15 17  2  0
 17 18  1  0
 17  2  1  0
M  END
>  <HIPPO ID>  (331) 
113454

>  <alias>  (331) 
None

>  <ref_mols>  (331) 
c0692a,c1116a

>  <submitter_email>  (331) 
None

>  <ref_pdb>  (331) 
c0270a

>  <inchikey>  (331) 
CUUCSEXQCXTLTA-UHFFFAOYSA-N

>  <generation_date>  (331) 
None

>  <original ID>  (331) 
CUUCSEXQCXTLTA-UHFFFAOYSA-N

>  <tags>  (331) 
[]

>  <exports>  (331) 
nan

>  <method>  (331) 
None

>  <submitter_name>  (331) 
None

>  <original SMILES>  (331) 
Nc1c(NC(=O)COCCCO)ccc(F)c1F

>  <ref_url>  (331) 
None

$$$$
ZHNDXWAXNRWGFQ-UHFFFAOYSA-N
     RDKit          3D

 18 18  0  0  0  0  0  0  0  0999 V2000
   16.1839    9.4768    8.7035 N   0  0  0  0  0  0  0  0  0  0  0  0
   15.8353    9.2990   10.0302 C   0  0  0  0  0  0  0  0  0  0  0  0
   14.9601    8.2483   10.3235 C   0  0  0  0  0  0  0  0  0  0  0  0
   14.4616    8.1047   11.6041 C   0  0  0  0  0  0  0  0  0  0  0  0
   14.7663    9.0774   12.5467 C   0  0  0  0  0  0  0  0  0  0  0  0
   14.1479    9.0911   13.7256 F   0  0  0  0  0  0  0  0  0  0  0  0
   15.6526   10.0959   12.2875 C   0  0  0  0  0  0  0  0  0  0  0  0
   16.0260   10.8595   13.3210 F   0  0  0  0  0  0  0  0  0  0  0  0
   16.2224   10.2099   11.0301 C   0  0  0  0  0  0  0  0  0  0  0  0
   17.2842   11.1004   10.7850 N   0  0  0  0  0  0  0  0  0  0  0  0
   17.5564   12.2381   11.5171 C   0  0  0  0  0  0  0  0  0  0  0  0
   16.7291   12.8915   12.1468 O   0  0  0  0  0  0  0  0  0  0  0  0
   19.0001   12.6988   11.4399 C   0  0  0  0  0  0  0  0  0  0  0  0
   19.7989   11.7284   10.7886 O   0  0  0  0  0  0  0  0  0  0  0  0
   21.1508   12.1789   10.7034 C   0  0  0  0  0  0  0  0  0  0  0  0
   21.8983   11.1018    9.9629 C   0  0  0  0  0  0  0  0  0  0  0  0
   22.9982   11.6627    9.0976 C   0  0  0  0  0  0  0  0  0  0  0  0
   23.9019   12.3837    9.8910 O   0  0  0  0  0  0  0  0  0  0  0  0
  1  2  1  0
  2  3  2  0
  3  4  1  0
  4  5  2  0
  5  6  1  0
  5  7  1  0
  7  8  1  0
  7  9  2  0
  9 10  1  0
 10 11  1  0
 11 12  2  0
 11 13  1  0
 13 14  1  0
 14 15  1  0
 15 16  1  0
 16 17  1  0
 17 18  1  0
  9  2  1  0
M  END
>  <HIPPO ID>  (332) 
113455

>  <alias>  (332) 
None

>  <ref_mols>  (332) 
c0692a,c1116a

>  <submitter_email>  (332) 
None

>  <ref_pdb>  (332) 
c0270a

>  <inchikey>  (332) 
ZHNDXWAXNRWGFQ-UHFFFAOYSA-N

>  <generation_date>  (332) 
None

>  <original ID>  (332) 
ZHNDXWAXNRWGFQ-UHFFFAOYSA-N

>  <tags>  (332) 
[]

>  <exports>  (332) 
nan

>  <method>  (332) 
None

>  <submitter_name>  (332) 
None

>  <original SMILES>  (332) 
Nc1ccc(F)c(F)c1NC(=O)COCCCO

>  <ref_url>  (332) 
None

$$$$
NEBCLTUGFQJBNT-UHFFFAOYSA-N
     RDKit          3D

 18 18  0  0  0  0  0  0  0  0999 V2000
   16.2842    9.4727    8.5594 N   0  0  0  0  0  0  0  0  0  0  0  0
   15.7834    9.3661    9.8479 C   0  0  0  0  0  0  0  0  0  0  0  0
   14.9442    8.2840   10.1008 C   0  0  0  0  0  0  0  0  0  0  0  0
   14.4661    8.0696   11.3738 C   0  0  0  0  0  0  0  0  0  0  0  0
   13.4720    6.6913   11.6507 Cl  0  0  0  0  0  0  0  0  0  0  0  0
   14.7697    9.0011   12.3636 C   0  0  0  0  0  0  0  0  0  0  0  0
   14.1870    8.9756   13.5610 F   0  0  0  0  0  0  0  0  0  0  0  0
   15.6441   10.0469   12.1422 C   0  0  0  0  0  0  0  0  0  0  0  0
   16.2294   10.1852   10.8980 C   0  0  0  0  0  0  0  0  0  0  0  0
   17.3197   11.0511   10.6911 N   0  0  0  0  0  0  0  0  0  0  0  0
   17.7484   12.0339   11.5582 C   0  0  0  0  0  0  0  0  0  0  0  0
   17.0883   12.5023   12.4845 O   0  0  0  0  0  0  0  0  0  0  0  0
   19.1593   12.5473   11.3014 C   0  0  0  0  0  0  0  0  0  0  0  0
   19.8980   11.7616   10.3828 O   0  0  0  0  0  0  0  0  0  0  0  0
   21.3137   11.8688   10.5588 C   0  0  0  0  0  0  0  0  0  0  0  0
   21.8829   13.2935   10.6212 C   0  0  0  0  0  0  0  0  0  0  0  0
   21.7412   14.1496    9.3668 C   0  0  0  0  0  0  0  0  0  0  0  0
   20.4129   14.6412    9.1706 O   0  0  0  0  0  0  0  0  0  0  0  0
  1  2  1  0
  2  3  2  0
  3  4  1  0
  4  5  1  0
  4  6  2  0
  6  7  1  0
  6  8  1  0
  8  9  2  0
  9 10  1  0
 10 11  1  0
 11 12  2  0
 11 13  1  0
 13 14  1  0
 14 15  1  0
 15 16  1  0
 16 17  1  0
 17 18  1  0
  9  2  1  0
M  END
>  <HIPPO ID>  (333) 
113462

>  <alias>  (333) 
None

>  <ref_mols>  (333) 
c0692a,c1116a

>  <submitter_email>  (333) 
None

>  <ref_pdb>  (333) 
c0270a

>  <inchikey>  (333) 
NEBCLTUGFQJBNT-UHFFFAOYSA-N

>  <generation_date>  (333) 
None

>  <original ID>  (333) 
NEBCLTUGFQJBNT-UHFFFAOYSA-N

>  <tags>  (333) 
[]

>  <exports>  (333) 
nan

>  <method>  (333) 
None

>  <submitter_name>  (333) 
None

>  <original SMILES>  (333) 
Nc1cc(Cl)c(F)cc1NC(=O)COCCCO

>  <ref_url>  (333) 
None

$$$$
ZGTRDRWBCVWLNQ-UHFFFAOYSA-N
     RDKit          3D

 18 18  0  0  0  0  0  0  0  0999 V2000
   16.2429    9.4566    8.5633 N   0  0  0  0  0  0  0  0  0  0  0  0
   15.7901    9.4009    9.8727 C   0  0  0  0  0  0  0  0  0  0  0  0
   14.9108    8.3762   10.2005 C   0  0  0  0  0  0  0  0  0  0  0  0
   14.4684    8.2594   11.5009 C   0  0  0  0  0  0  0  0  0  0  0  0
   13.5662    7.3044   11.7729 F   0  0  0  0  0  0  0  0  0  0  0  0
   14.8725    9.1846   12.4630 C   0  0  0  0  0  0  0  0  0  0  0  0
   14.2710    9.2204   14.0593 Cl  0  0  0  0  0  0  0  0  0  0  0  0
   15.7911   10.1675   12.1548 C   0  0  0  0  0  0  0  0  0  0  0  0
   16.3115   10.2336   10.8759 C   0  0  0  0  0  0  0  0  0  0  0  0
   17.4287   11.0396   10.6054 N   0  0  0  0  0  0  0  0  0  0  0  0
   17.8734   12.0801   11.3937 C   0  0  0  0  0  0  0  0  0  0  0  0
   17.1924   12.6805   12.2241 O   0  0  0  0  0  0  0  0  0  0  0  0
   19.3162   12.4919   11.1494 C   0  0  0  0  0  0  0  0  0  0  0  0
   20.0913   11.4362   10.5978 O   0  0  0  0  0  0  0  0  0  0  0  0
   21.4743   11.7887   10.4898 C   0  0  0  0  0  0  0  0  0  0  0  0
   22.1860   11.6731   11.8265 C   0  0  0  0  0  0  0  0  0  0  0  0
   23.5481   12.3393   11.7859 C   0  0  0  0  0  0  0  0  0  0  0  0
   24.2212   12.1018   13.0142 O   0  0  0  0  0  0  0  0  0  0  0  0
  1  2  1  0
  2  3  2  0
  3  4  1  0
  4  5  1  0
  4  6  2  0
  6  7  1  0
  6  8  1  0
  8  9  2  0
  9 10  1  0
 10 11  1  0
 11 12  2  0
 11 13  1  0
 13 14  1  0
 14 15  1  0
 15 16  1  0
 16 17  1  0
 17 18  1  0
  9  2  1  0
M  END
>  <HIPPO ID>  (334) 
113463

>  <alias>  (334) 
None

>  <ref_mols>  (334) 
c0692a,c1116a

>  <submitter_email>  (334) 
None

>  <ref_pdb>  (334) 
c0270a

>  <inchikey>  (334) 
ZGTRDRWBCVWLNQ-UHFFFAOYSA-N

>  <generation_date>  (334) 
None

>  <original ID>  (334) 
ZGTRDRWBCVWLNQ-UHFFFAOYSA-N

>  <tags>  (334) 
[]

>  <exports>  (334) 
nan

>  <method>  (334) 
None

>  <submitter_name>  (334) 
None

>  <original SMILES>  (334) 
Nc1cc(F)c(Cl)cc1NC(=O)COCCCO

>  <ref_url>  (334) 
None

$$$$
UEQXNHLPXRFMBW-UHFFFAOYSA-N
     RDKit          3D

 18 18  0  0  0  0  0  0  0  0999 V2000
   23.0271   10.9735   13.4665 C   0  0  0  0  0  0  0  0  0  0  0  0
   22.6550   11.0158   12.3263 C   0  0  0  0  0  0  0  0  0  0  0  0
   22.2964   11.1230   10.9028 C   0  0  0  0  0  0  0  0  0  0  0  0
   21.3074   12.2517   10.7042 C   0  0  0  0  0  0  0  0  0  0  0  0
   19.9729   11.7225   10.7084 O   0  0  0  0  0  0  0  0  0  0  0  0
   19.0873   12.6371   11.3264 C   0  0  0  0  0  0  0  0  0  0  0  0
   17.6826   12.0908   11.5393 C   0  0  0  0  0  0  0  0  0  0  0  0
   16.9628   12.5886   12.4041 O   0  0  0  0  0  0  0  0  0  0  0  0
   17.3110   11.0663   10.6938 N   0  0  0  0  0  0  0  0  0  0  0  0
   16.2262   10.1916   10.8990 C   0  0  0  0  0  0  0  0  0  0  0  0
   15.6413   10.0550   12.1441 C   0  0  0  0  0  0  0  0  0  0  0  0
   14.7703    9.0073   12.3686 C   0  0  0  0  0  0  0  0  0  0  0  0
   14.1869    8.9842   13.5658 F   0  0  0  0  0  0  0  0  0  0  0  0
   14.4706    8.0713   11.3818 C   0  0  0  0  0  0  0  0  0  0  0  0
   13.4777    6.6928   11.6624 Cl  0  0  0  0  0  0  0  0  0  0  0  0
   14.9513    8.2812   10.1087 C   0  0  0  0  0  0  0  0  0  0  0  0
   15.7865    9.3657    9.8520 C   0  0  0  0  0  0  0  0  0  0  0  0
   16.2844    9.4711    8.5628 N   0  0  0  0  0  0  0  0  0  0  0  0
  1  2  3  0
  2  3  1  0
  3  4  1  0
  4  5  1  0
  5  6  1  0
  6  7  1  0
  7  8  2  0
  7  9  1  0
  9 10  1  0
 10 11  2  0
 11 12  1  0
 12 13  1  0
 12 14  2  0
 14 15  1  0
 14 16  1  0
 16 17  2  0
 17 18  1  0
 17 10  1  0
M  END
>  <HIPPO ID>  (335) 
113482

>  <alias>  (335) 
None

>  <ref_mols>  (335) 
c0692a,c1116a

>  <submitter_email>  (335) 
None

>  <ref_pdb>  (335) 
c0270a

>  <inchikey>  (335) 
UEQXNHLPXRFMBW-UHFFFAOYSA-N

>  <generation_date>  (335) 
None

>  <original ID>  (335) 
UEQXNHLPXRFMBW-UHFFFAOYSA-N

>  <tags>  (335) 
[]

>  <exports>  (335) 
nan

>  <method>  (335) 
None

>  <submitter_name>  (335) 
None

>  <original SMILES>  (335) 
C#CCCOCC(=O)Nc1cc(F)c(Cl)cc1N

>  <ref_url>  (335) 
None

$$$$
HFXXYRFVSDUHQI-UHFFFAOYSA-N
     RDKit          3D

 18 18  0  0  0  0  0  0  0  0999 V2000
   22.7230   13.4812    8.0072 C   0  0  0  0  0  0  0  0  0  0  0  0
   22.4120   13.2540    9.1428 C   0  0  0  0  0  0  0  0  0  0  0  0
   22.1691   12.8825   10.5375 C   0  0  0  0  0  0  0  0  0  0  0  0
   21.4536   11.5333   10.6767 C   0  0  0  0  0  0  0  0  0  0  0  0
   20.0477   11.5594   10.3867 O   0  0  0  0  0  0  0  0  0  0  0  0
   19.3319   12.4957   11.1744 C   0  0  0  0  0  0  0  0  0  0  0  0
   17.8869   12.0825   11.4142 C   0  0  0  0  0  0  0  0  0  0  0  0
   17.2118   12.6701   12.2581 O   0  0  0  0  0  0  0  0  0  0  0  0
   17.4406   11.0467   10.6196 N   0  0  0  0  0  0  0  0  0  0  0  0
   16.3219   10.2390   10.8837 C   0  0  0  0  0  0  0  0  0  0  0  0
   15.7971   10.1701   12.1610 C   0  0  0  0  0  0  0  0  0  0  0  0
   14.8754    9.1884   12.4653 C   0  0  0  0  0  0  0  0  0  0  0  0
   14.2698    9.2230   14.0600 Cl  0  0  0  0  0  0  0  0  0  0  0  0
   14.4723    8.2652   11.5014 C   0  0  0  0  0  0  0  0  0  0  0  0
   13.5691    7.3103   11.7697 F   0  0  0  0  0  0  0  0  0  0  0  0
   14.9182    8.3840   10.2027 C   0  0  0  0  0  0  0  0  0  0  0  0
   15.8004    9.4080    9.8784 C   0  0  0  0  0  0  0  0  0  0  0  0
   16.2528    9.4624    8.5687 N   0  0  0  0  0  0  0  0  0  0  0  0
  1  2  3  0
  2  3  1  0
  3  4  1  0
  4  5  1  0
  5  6  1  0
  6  7  1  0
  7  8  2  0
  7  9  1  0
  9 10  1  0
 10 11  2  0
 11 12  1  0
 12 13  1  0
 12 14  2  0
 14 15  1  0
 14 16  1  0
 16 17  2  0
 17 18  1  0
 17 10  1  0
M  END
>  <HIPPO ID>  (336) 
113483

>  <alias>  (336) 
None

>  <ref_mols>  (336) 
c0692a,c1116a

>  <submitter_email>  (336) 
None

>  <ref_pdb>  (336) 
c0270a

>  <inchikey>  (336) 
HFXXYRFVSDUHQI-UHFFFAOYSA-N

>  <generation_date>  (336) 
None

>  <original ID>  (336) 
HFXXYRFVSDUHQI-UHFFFAOYSA-N

>  <tags>  (336) 
[]

>  <exports>  (336) 
nan

>  <method>  (336) 
None

>  <submitter_name>  (336) 
None

>  <original SMILES>  (336) 
C#CCCOCC(=O)Nc1cc(Cl)c(F)cc1N

>  <ref_url>  (336) 
None

$$$$
ODUHFRZUDIVDPU-QMMMGPOBSA-N
     RDKit          3D

 18 18  0  0  0  0  0  0  0  0999 V2000
   21.4892   11.3689   10.3167 C   0  0  0  0  0  0  0  0  0  0  0  0
   20.0711   11.2852   10.4477 O   0  0  0  0  0  0  0  0  0  0  0  0
   19.4719   12.4114   11.0965 C   0  0  2  0  0  0  0  0  0  0  0  0
   20.1660   12.9238   12.3602 C   0  0  0  0  0  0  0  0  0  0  0  0
   21.1991   12.4854   12.8394 O   0  0  0  0  0  0  0  0  0  0  0  0
   19.5831   13.9904   12.9360 O   0  0  0  0  0  0  0  0  0  0  0  0
   17.9989   12.0503   11.3647 C   0  0  0  0  0  0  0  0  0  0  0  0
   17.3118   12.6439   12.1951 O   0  0  0  0  0  0  0  0  0  0  0  0
   17.5013   11.0234   10.5742 N   0  0  0  0  0  0  0  0  0  0  0  0
   16.3667   10.2411   10.8573 C   0  0  0  0  0  0  0  0  0  0  0  0
   15.8483   10.1918   12.1373 C   0  0  0  0  0  0  0  0  0  0  0  0
   14.9203    9.2196   12.4600 C   0  0  0  0  0  0  0  0  0  0  0  0
   14.3005    9.2751   14.2256 Br  0  0  0  0  0  0  0  0  0  0  0  0
   14.4970    8.2928   11.5100 C   0  0  0  0  0  0  0  0  0  0  0  0
   13.5941    7.3431   11.7963 F   0  0  0  0  0  0  0  0  0  0  0  0
   14.9325    8.3959   10.2068 C   0  0  0  0  0  0  0  0  0  0  0  0
   15.8273    9.4042    9.8668 C   0  0  0  0  0  0  0  0  0  0  0  0
   16.2746    9.4380    8.5543 N   0  0  0  0  0  0  0  0  0  0  0  0
  1  2  1  0
  3  2  1  1
  3  4  1  0
  4  5  2  0
  4  6  1  0
  3  7  1  0
  7  8  2  0
  7  9  1  0
  9 10  1  0
 10 11  2  0
 11 12  1  0
 12 13  1  0
 12 14  2  0
 14 15  1  0
 14 16  1  0
 16 17  2  0
 17 18  1  0
 17 10  1  0
M  END
>  <HIPPO ID>  (337) 
113501

>  <alias>  (337) 
None

>  <ref_mols>  (337) 
c0692a,c1116a

>  <submitter_email>  (337) 
None

>  <ref_pdb>  (337) 
c0270a

>  <inchikey>  (337) 
ODUHFRZUDIVDPU-QMMMGPOBSA-N

>  <generation_date>  (337) 
None

>  <original ID>  (337) 
ODUHFRZUDIVDPU-QMMMGPOBSA-N

>  <tags>  (337) 
[]

>  <exports>  (337) 
nan

>  <method>  (337) 
None

>  <submitter_name>  (337) 
None

>  <original SMILES>  (337) 
CO[C@H](C(=O)O)C(=O)Nc1cc(Br)c(F)cc1N

>  <ref_url>  (337) 
None

$$$$
ODUHFRZUDIVDPU-MRVPVSSYSA-N
     RDKit          3D

 18 18  0  0  0  0  0  0  0  0999 V2000
   21.5637   11.3781   10.4850 C   0  0  0  0  0  0  0  0  0  0  0  0
   20.1458   11.4310   10.3420 O   0  0  0  0  0  0  0  0  0  0  0  0
   19.5649   12.4069   11.2019 C   0  0  1  0  0  0  0  0  0  0  0  0
   19.8558   13.8514   10.8125 C   0  0  0  0  0  0  0  0  0  0  0  0
   19.9568   14.3093    9.6837 O   0  0  0  0  0  0  0  0  0  0  0  0
   20.0735   14.6528   11.8709 O   0  0  0  0  0  0  0  0  0  0  0  0
   18.0604   12.1378   11.3446 C   0  0  0  0  0  0  0  0  0  0  0  0
   17.3627   12.8030   12.1105 O   0  0  0  0  0  0  0  0  0  0  0  0
   17.5770   11.0784   10.5871 N   0  0  0  0  0  0  0  0  0  0  0  0
   16.4224   10.3191   10.8613 C   0  0  0  0  0  0  0  0  0  0  0  0
   15.8811   10.3123   12.1325 C   0  0  0  0  0  0  0  0  0  0  0  0
   14.9490    9.3466   12.4706 C   0  0  0  0  0  0  0  0  0  0  0  0
   14.3095    9.4448   14.2260 Br  0  0  0  0  0  0  0  0  0  0  0  0
   14.5419    8.3874   11.5456 C   0  0  0  0  0  0  0  0  0  0  0  0
   13.6501    7.4330   11.8511 F   0  0  0  0  0  0  0  0  0  0  0  0
   14.9893    8.4549   10.2461 C   0  0  0  0  0  0  0  0  0  0  0  0
   15.8909    9.4516    9.8900 C   0  0  0  0  0  0  0  0  0  0  0  0
   16.3322    9.4468    8.5748 N   0  0  0  0  0  0  0  0  0  0  0  0
  1  2  1  0
  3  2  1  6
  3  4  1  0
  4  5  2  0
  4  6  1  0
  3  7  1  0
  7  8  2  0
  7  9  1  0
  9 10  1  0
 10 11  2  0
 11 12  1  0
 12 13  1  0
 12 14  2  0
 14 15  1  0
 14 16  1  0
 16 17  2  0
 17 18  1  0
 17 10  1  0
M  END
>  <HIPPO ID>  (338) 
113502

>  <alias>  (338) 
None

>  <ref_mols>  (338) 
c0692a,c1116a

>  <submitter_email>  (338) 
None

>  <ref_pdb>  (338) 
c0270a

>  <inchikey>  (338) 
ODUHFRZUDIVDPU-MRVPVSSYSA-N

>  <generation_date>  (338) 
None

>  <original ID>  (338) 
ODUHFRZUDIVDPU-MRVPVSSYSA-N

>  <tags>  (338) 
[]

>  <exports>  (338) 
nan

>  <method>  (338) 
None

>  <submitter_name>  (338) 
None

>  <original SMILES>  (338) 
CO[C@@H](C(=O)O)C(=O)Nc1cc(Br)c(F)cc1N

>  <ref_url>  (338) 
None

$$$$
YLMQKDCMEQFENL-QMMMGPOBSA-N
     RDKit          3D

 18 18  0  0  0  0  0  0  0  0999 V2000
   21.3869   11.3677   10.3965 C   0  0  0  0  0  0  0  0  0  0  0  0
   19.9936   11.2244   10.6567 O   0  0  0  0  0  0  0  0  0  0  0  0
   19.3603   12.3883   11.1879 C   0  0  2  0  0  0  0  0  0  0  0  0
   19.9336   13.0755   12.4419 C   0  0  0  0  0  0  0  0  0  0  0  0
   19.3868   13.9474   13.0985 O   0  0  0  0  0  0  0  0  0  0  0  0
   21.1655   12.6595   12.7918 O   0  0  0  0  0  0  0  0  0  0  0  0
   17.8763   12.0116   11.4255 C   0  0  0  0  0  0  0  0  0  0  0  0
   17.1693   12.5700   12.2617 O   0  0  0  0  0  0  0  0  0  0  0  0
   17.3959   11.0069   10.6007 N   0  0  0  0  0  0  0  0  0  0  0  0
   16.2698   10.1952   10.8453 C   0  0  0  0  0  0  0  0  0  0  0  0
   15.6789   10.1144   12.0915 C   0  0  0  0  0  0  0  0  0  0  0  0
   14.7999    9.0778   12.3509 C   0  0  0  0  0  0  0  0  0  0  0  0
   14.2177    9.0939   13.5489 F   0  0  0  0  0  0  0  0  0  0  0  0
   14.5026    8.1051   11.3977 C   0  0  0  0  0  0  0  0  0  0  0  0
   13.4617    6.5645   11.7572 Br  0  0  0  0  0  0  0  0  0  0  0  0
   14.9689    8.2796   10.1138 C   0  0  0  0  0  0  0  0  0  0  0  0
   15.8076    9.3510    9.8240 C   0  0  0  0  0  0  0  0  0  0  0  0
   16.3012    9.4287    8.5306 N   0  0  0  0  0  0  0  0  0  0  0  0
  1  2  1  0
  3  2  1  1
  3  4  1  0
  4  5  2  0
  4  6  1  0
  3  7  1  0
  7  8  2  0
  7  9  1  0
  9 10  1  0
 10 11  2  0
 11 12  1  0
 12 13  1  0
 12 14  2  0
 14 15  1  0
 14 16  1  0
 16 17  2  0
 17 18  1  0
 17 10  1  0
M  END
>  <HIPPO ID>  (339) 
113503

>  <alias>  (339) 
None

>  <ref_mols>  (339) 
c0692a,c1116a

>  <submitter_email>  (339) 
None

>  <ref_pdb>  (339) 
c0270a

>  <inchikey>  (339) 
YLMQKDCMEQFENL-QMMMGPOBSA-N

>  <generation_date>  (339) 
None

>  <original ID>  (339) 
YLMQKDCMEQFENL-QMMMGPOBSA-N

>  <tags>  (339) 
[]

>  <exports>  (339) 
nan

>  <method>  (339) 
None

>  <submitter_name>  (339) 
None

>  <original SMILES>  (339) 
CO[C@H](C(=O)O)C(=O)Nc1cc(F)c(Br)cc1N

>  <ref_url>  (339) 
None

$$$$
YLMQKDCMEQFENL-MRVPVSSYSA-N
     RDKit          3D

 18 18  0  0  0  0  0  0  0  0999 V2000
   21.4661   11.3533   10.4948 C   0  0  0  0  0  0  0  0  0  0  0  0
   20.0468   11.4194   10.3621 O   0  0  0  0  0  0  0  0  0  0  0  0
   19.4769   12.3889   11.2395 C   0  0  1  0  0  0  0  0  0  0  0  0
   19.7652   13.8332   10.8516 C   0  0  0  0  0  0  0  0  0  0  0  0
   19.9377   14.2781    9.7261 O   0  0  0  0  0  0  0  0  0  0  0  0
   19.8970   14.6529   11.9096 O   0  0  0  0  0  0  0  0  0  0  0  0
   17.9736   12.1007   11.4210 C   0  0  0  0  0  0  0  0  0  0  0  0
   17.2968   12.7131   12.2458 O   0  0  0  0  0  0  0  0  0  0  0  0
   17.4747   11.0804   10.6224 N   0  0  0  0  0  0  0  0  0  0  0  0
   16.3308   10.2883   10.8642 C   0  0  0  0  0  0  0  0  0  0  0  0
   15.7164   10.2485   12.1009 C   0  0  0  0  0  0  0  0  0  0  0  0
   14.8320    9.2171   12.3788 C   0  0  0  0  0  0  0  0  0  0  0  0
   14.2266    9.2701   13.5645 F   0  0  0  0  0  0  0  0  0  0  0  0
   14.5583    8.2069   11.4566 C   0  0  0  0  0  0  0  0  0  0  0  0
   13.5453    6.6551   11.8508 Br  0  0  0  0  0  0  0  0  0  0  0  0
   15.0366    8.3448   10.1743 C   0  0  0  0  0  0  0  0  0  0  0  0
   15.8745    9.4114    9.8632 C   0  0  0  0  0  0  0  0  0  0  0  0
   16.3563    9.4476    8.5634 N   0  0  0  0  0  0  0  0  0  0  0  0
  1  2  1  0
  3  2  1  6
  3  4  1  0
  4  5  2  0
  4  6  1  0
  3  7  1  0
  7  8  2  0
  7  9  1  0
  9 10  1  0
 10 11  2  0
 11 12  1  0
 12 13  1  0
 12 14  2  0
 14 15  1  0
 14 16  1  0
 16 17  2  0
 17 18  1  0
 17 10  1  0
M  END
>  <HIPPO ID>  (340) 
113504

>  <alias>  (340) 
None

>  <ref_mols>  (340) 
c0692a,c1116a

>  <submitter_email>  (340) 
None

>  <ref_pdb>  (340) 
c0270a

>  <inchikey>  (340) 
YLMQKDCMEQFENL-MRVPVSSYSA-N

>  <generation_date>  (340) 
None

>  <original ID>  (340) 
YLMQKDCMEQFENL-MRVPVSSYSA-N

>  <tags>  (340) 
[]

>  <exports>  (340) 
nan

>  <method>  (340) 
None

>  <submitter_name>  (340) 
None

>  <original SMILES>  (340) 
CO[C@@H](C(=O)O)C(=O)Nc1cc(F)c(Br)cc1N

>  <ref_url>  (340) 
None

$$$$
RGGAXAMXBINPFG-VIFPVBQESA-N
     RDKit          3D

 18 18  0  0  0  0  0  0  0  0999 V2000
   21.4370   11.3563   10.4051 C   0  0  0  0  0  0  0  0  0  0  0  0
   20.0393   11.2287   10.6505 O   0  0  0  0  0  0  0  0  0  0  0  0
   19.4135   12.4193   11.1250 C   0  0  2  0  0  0  0  0  0  0  0  0
   19.9023   13.0463   12.4406 C   0  0  0  0  0  0  0  0  0  0  0  0
   19.2615   13.7819   13.1735 O   0  0  0  0  0  0  0  0  0  0  0  0
   21.1742   12.7405   12.7632 O   0  0  0  0  0  0  0  0  0  0  0  0
   17.8931   12.1488   11.2223 C   0  0  0  0  0  0  0  0  0  0  0  0
   17.1106   12.9601   11.7139 O   0  0  0  0  0  0  0  0  0  0  0  0
   17.4740   10.9648   10.6517 N   0  0  0  0  0  0  0  0  0  0  0  0
   16.3074   10.2255   10.9451 C   0  0  0  0  0  0  0  0  0  0  0  0
   15.8261    9.3661    9.9290 C   0  0  0  0  0  0  0  0  0  0  0  0
   16.2919    9.4405    8.6196 N   0  0  0  0  0  0  0  0  0  0  0  0
   14.9719    8.3090   10.2282 C   0  0  0  0  0  0  0  0  0  0  0  0
   14.4821    8.1821   11.5066 C   0  0  0  0  0  0  0  0  0  0  0  0
   14.7871    9.1707   12.4340 C   0  0  0  0  0  0  0  0  0  0  0  0
   14.1276    9.1920   13.5929 F   0  0  0  0  0  0  0  0  0  0  0  0
   15.7126   10.1822   12.2064 C   0  0  0  0  0  0  0  0  0  0  0  0
   15.9777   11.0961   13.3605 C   0  0  0  0  0  0  0  0  0  0  0  0
  1  2  1  0
  3  2  1  1
  3  4  1  0
  4  5  2  0
  4  6  1  0
  3  7  1  0
  7  8  2  0
  7  9  1  0
  9 10  1  0
 10 11  2  0
 11 12  1  0
 11 13  1  0
 13 14  2  0
 14 15  1  0
 15 16  1  0
 15 17  2  0
 17 18  1  0
 17 10  1  0
M  END
>  <HIPPO ID>  (341) 
113507

>  <alias>  (341) 
None

>  <ref_mols>  (341) 
c0692a,c1116a

>  <submitter_email>  (341) 
None

>  <ref_pdb>  (341) 
c0270a

>  <inchikey>  (341) 
RGGAXAMXBINPFG-VIFPVBQESA-N

>  <generation_date>  (341) 
None

>  <original ID>  (341) 
RGGAXAMXBINPFG-VIFPVBQESA-N

>  <tags>  (341) 
[]

>  <exports>  (341) 
nan

>  <method>  (341) 
None

>  <submitter_name>  (341) 
None

>  <original SMILES>  (341) 
CO[C@H](C(=O)O)C(=O)Nc1c(N)ccc(F)c1C

>  <ref_url>  (341) 
None

$$$$
RGGAXAMXBINPFG-SECBINFHSA-N
     RDKit          3D

 18 18  0  0  0  0  0  0  0  0999 V2000
   21.4438   11.2620   10.6134 C   0  0  0  0  0  0  0  0  0  0  0  0
   20.0506   11.4281   10.3611 O   0  0  0  0  0  0  0  0  0  0  0  0
   19.4638   12.4325   11.1794 C   0  0  1  0  0  0  0  0  0  0  0  0
   19.7956   13.8879   10.8500 C   0  0  0  0  0  0  0  0  0  0  0  0
   19.4731   14.8746   11.4901 O   0  0  0  0  0  0  0  0  0  0  0  0
   20.5580   14.0677    9.7525 O   0  0  0  0  0  0  0  0  0  0  0  0
   17.9449   12.1973   11.2886 C   0  0  0  0  0  0  0  0  0  0  0  0
   17.2123   12.9908   11.8743 O   0  0  0  0  0  0  0  0  0  0  0  0
   17.4944   11.0348   10.6881 N   0  0  0  0  0  0  0  0  0  0  0  0
   16.3311   10.2793   10.9755 C   0  0  0  0  0  0  0  0  0  0  0  0
   15.8637    9.4062    9.9599 C   0  0  0  0  0  0  0  0  0  0  0  0
   16.3329    9.4615    8.6508 N   0  0  0  0  0  0  0  0  0  0  0  0
   15.0087    8.3459   10.2538 C   0  0  0  0  0  0  0  0  0  0  0  0
   14.5037    8.2205   11.5246 C   0  0  0  0  0  0  0  0  0  0  0  0
   14.7938    9.2144   12.4494 C   0  0  0  0  0  0  0  0  0  0  0  0
   14.1196    9.2363   13.6000 F   0  0  0  0  0  0  0  0  0  0  0  0
   15.7181   10.2313   12.2290 C   0  0  0  0  0  0  0  0  0  0  0  0
   15.9590   11.1440   13.3883 C   0  0  0  0  0  0  0  0  0  0  0  0
  1  2  1  0
  3  2  1  6
  3  4  1  0
  4  5  2  0
  4  6  1  0
  3  7  1  0
  7  8  2  0
  7  9  1  0
  9 10  1  0
 10 11  2  0
 11 12  1  0
 11 13  1  0
 13 14  2  0
 14 15  1  0
 15 16  1  0
 15 17  2  0
 17 18  1  0
 17 10  1  0
M  END
>  <HIPPO ID>  (342) 
113508

>  <alias>  (342) 
None

>  <ref_mols>  (342) 
c0692a,c1116a

>  <submitter_email>  (342) 
None

>  <ref_pdb>  (342) 
c0270a

>  <inchikey>  (342) 
RGGAXAMXBINPFG-SECBINFHSA-N

>  <generation_date>  (342) 
None

>  <original ID>  (342) 
RGGAXAMXBINPFG-SECBINFHSA-N

>  <tags>  (342) 
[]

>  <exports>  (342) 
nan

>  <method>  (342) 
None

>  <submitter_name>  (342) 
None

>  <original SMILES>  (342) 
CO[C@@H](C(=O)O)C(=O)Nc1c(N)ccc(F)c1C

>  <ref_url>  (342) 
None

$$$$
YZTMDIDXCSTDKV-UHFFFAOYSA-N
     RDKit          3D

 18 18  0  0  0  0  0  0  0  0999 V2000
   21.1599   15.0051    9.3414 C   0  0  0  0  0  0  0  0  0  0  0  0
   21.6445   13.9334    9.5894 C   0  0  0  0  0  0  0  0  0  0  0  0
   22.2824   12.6197    9.8215 C   0  0  0  0  0  0  0  0  0  0  0  0
   21.5234   11.6958   10.7832 C   0  0  0  0  0  0  0  0  0  0  0  0
   20.1223   11.5263   10.5084 O   0  0  0  0  0  0  0  0  0  0  0  0
   19.3227   12.4896   11.1821 C   0  0  0  0  0  0  0  0  0  0  0  0
   17.8870   12.0406   11.4305 C   0  0  0  0  0  0  0  0  0  0  0  0
   17.2021   12.6145   12.2768 O   0  0  0  0  0  0  0  0  0  0  0  0
   17.4506   11.0090   10.6279 N   0  0  0  0  0  0  0  0  0  0  0  0
   16.3179   10.2102   10.8665 C   0  0  0  0  0  0  0  0  0  0  0  0
   15.7314   10.1589   12.1168 C   0  0  0  0  0  0  0  0  0  0  0  0
   14.7841    9.1920   12.3662 C   0  0  0  0  0  0  0  0  0  0  0  0
   14.1674    9.2559   13.5451 F   0  0  0  0  0  0  0  0  0  0  0  0
   14.4309    8.2481   11.4062 C   0  0  0  0  0  0  0  0  0  0  0  0
   13.5111    7.3056   11.6564 F   0  0  0  0  0  0  0  0  0  0  0  0
   14.9306    8.3549   10.1322 C   0  0  0  0  0  0  0  0  0  0  0  0
   15.8239    9.3796    9.8442 C   0  0  0  0  0  0  0  0  0  0  0  0
   16.3013    9.4466    8.5454 N   0  0  0  0  0  0  0  0  0  0  0  0
  1  2  3  0
  2  3  1  0
  3  4  1  0
  4  5  1  0
  5  6  1  0
  6  7  1  0
  7  8  2  0
  7  9  1  0
  9 10  1  0
 10 11  2  0
 11 12  1  0
 12 13  1  0
 12 14  2  0
 14 15  1  0
 14 16  1  0
 16 17  2  0
 17 18  1  0
 17 10  1  0
M  END
>  <HIPPO ID>  (343) 
113510

>  <alias>  (343) 
None

>  <ref_mols>  (343) 
c0692a,c1116a

>  <submitter_email>  (343) 
None

>  <ref_pdb>  (343) 
c0270a

>  <inchikey>  (343) 
YZTMDIDXCSTDKV-UHFFFAOYSA-N

>  <generation_date>  (343) 
None

>  <original ID>  (343) 
YZTMDIDXCSTDKV-UHFFFAOYSA-N

>  <tags>  (343) 
[]

>  <exports>  (343) 
nan

>  <method>  (343) 
None

>  <submitter_name>  (343) 
None

>  <original SMILES>  (343) 
C#CCCOCC(=O)Nc1cc(F)c(F)cc1N

>  <ref_url>  (343) 
None

$$$$
ZNYYOVZKXLKKHN-UHFFFAOYSA-N
     RDKit          3D

 18 18  0  0  0  0  0  0  0  0999 V2000
   21.1496   10.3541    9.5341 C   0  0  0  0  0  0  0  0  0  0  0  0
   21.8379   11.2787    9.8346 C   0  0  0  0  0  0  0  0  0  0  0  0
   22.3041   12.5190   10.4085 C   0  0  0  0  0  0  0  0  0  0  0  0
   21.6481   12.6078   11.7895 C   0  0  0  0  0  0  0  0  0  0  0  0
   20.3020   12.1032   11.8049 O   0  0  0  0  0  0  0  0  0  0  0  0
   19.3528   12.9671   11.2322 C   0  0  0  0  0  0  0  0  0  0  0  0
   17.9424   12.4010   11.3712 C   0  0  0  0  0  0  0  0  0  0  0  0
   17.0844   13.0412   11.9865 O   0  0  0  0  0  0  0  0  0  0  0  0
   17.6962   11.2060   10.7219 N   0  0  0  0  0  0  0  0  0  0  0  0
   16.5550   10.3873   10.9020 C   0  0  0  0  0  0  0  0  0  0  0  0
   16.1627    9.5736    9.8257 C   0  0  0  0  0  0  0  0  0  0  0  0
   15.1482    8.6312    9.9603 C   0  0  0  0  0  0  0  0  0  0  0  0
   14.5953    8.4208   11.2054 C   0  0  0  0  0  0  0  0  0  0  0  0
   13.6631    7.4633   11.3312 F   0  0  0  0  0  0  0  0  0  0  0  0
   14.9798    9.2147   12.2871 C   0  0  0  0  0  0  0  0  0  0  0  0
   14.2984    8.9176   14.0245 Br  0  0  0  0  0  0  0  0  0  0  0  0
   15.8928   10.2670   12.1372 C   0  0  0  0  0  0  0  0  0  0  0  0
   16.3160   10.9721   13.2970 N   0  0  0  0  0  0  0  0  0  0  0  0
  1  2  3  0
  2  3  1  0
  3  4  1  0
  4  5  1  0
  5  6  1  0
  6  7  1  0
  7  8  2  0
  7  9  1  0
  9 10  1  0
 10 11  2  0
 11 12  1  0
 12 13  2  0
 13 14  1  0
 13 15  1  0
 15 16  1  0
 15 17  2  0
 17 18  1  0
 17 10  1  0
M  END
>  <HIPPO ID>  (344) 
113522

>  <alias>  (344) 
None

>  <ref_mols>  (344) 
c0692a,c1116a

>  <submitter_email>  (344) 
None

>  <ref_pdb>  (344) 
c0270a

>  <inchikey>  (344) 
ZNYYOVZKXLKKHN-UHFFFAOYSA-N

>  <generation_date>  (344) 
None

>  <original ID>  (344) 
ZNYYOVZKXLKKHN-UHFFFAOYSA-N

>  <tags>  (344) 
[]

>  <exports>  (344) 
nan

>  <method>  (344) 
None

>  <submitter_name>  (344) 
None

>  <original SMILES>  (344) 
C#CCCOCC(=O)Nc1ccc(F)c(Br)c1N

>  <ref_url>  (344) 
None

$$$$
GEIFQUWWGVYWIX-UHFFFAOYSA-N
     RDKit          3D

 18 18  0  0  0  0  0  0  0  0999 V2000
   21.4473   14.9756   11.6926 C   0  0  0  0  0  0  0  0  0  0  0  0
   21.8008   14.0336   11.0362 C   0  0  0  0  0  0  0  0  0  0  0  0
   22.1853   12.8392   10.2615 C   0  0  0  0  0  0  0  0  0  0  0  0
   21.4483   11.5694   10.7230 C   0  0  0  0  0  0  0  0  0  0  0  0
   20.0427   11.5099   10.4189 O   0  0  0  0  0  0  0  0  0  0  0  0
   19.2769   12.4635   11.1383 C   0  0  0  0  0  0  0  0  0  0  0  0
   17.7962   12.1345   11.2682 C   0  0  0  0  0  0  0  0  0  0  0  0
   17.0297   12.9391   11.7923 O   0  0  0  0  0  0  0  0  0  0  0  0
   17.4287   10.9388   10.7061 N   0  0  0  0  0  0  0  0  0  0  0  0
   16.2682   10.1837   10.9800 C   0  0  0  0  0  0  0  0  0  0  0  0
   15.7915    9.3566    9.9350 C   0  0  0  0  0  0  0  0  0  0  0  0
   16.2707    9.4574    8.6327 N   0  0  0  0  0  0  0  0  0  0  0  0
   14.9342    8.2894   10.1964 C   0  0  0  0  0  0  0  0  0  0  0  0
   14.4449    8.1090   11.4687 C   0  0  0  0  0  0  0  0  0  0  0  0
   14.7548    9.0550   12.4371 C   0  0  0  0  0  0  0  0  0  0  0  0
   14.1143    9.0035   13.6059 F   0  0  0  0  0  0  0  0  0  0  0  0
   15.6647   10.0820   12.2326 C   0  0  0  0  0  0  0  0  0  0  0  0
   16.0586   11.0794   13.7984 Br  0  0  0  0  0  0  0  0  0  0  0  0
  1  2  3  0
  2  3  1  0
  3  4  1  0
  4  5  1  0
  5  6  1  0
  6  7  1  0
  7  8  2  0
  7  9  1  0
  9 10  1  0
 10 11  2  0
 11 12  1  0
 11 13  1  0
 13 14  2  0
 14 15  1  0
 15 16  1  0
 15 17  2  0
 17 18  1  0
 17 10  1  0
M  END
>  <HIPPO ID>  (345) 
113523

>  <alias>  (345) 
None

>  <ref_mols>  (345) 
c0692a,c1116a

>  <submitter_email>  (345) 
None

>  <ref_pdb>  (345) 
c0270a

>  <inchikey>  (345) 
GEIFQUWWGVYWIX-UHFFFAOYSA-N

>  <generation_date>  (345) 
None

>  <original ID>  (345) 
GEIFQUWWGVYWIX-UHFFFAOYSA-N

>  <tags>  (345) 
[]

>  <exports>  (345) 
nan

>  <method>  (345) 
None

>  <submitter_name>  (345) 
None

>  <original SMILES>  (345) 
C#CCCOCC(=O)Nc1c(N)ccc(F)c1Br

>  <ref_url>  (345) 
None

$$$$
UFSOGANPUFBMQU-UHFFFAOYSA-N
     RDKit          3D

 18 18  0  0  0  0  0  0  0  0999 V2000
   21.2690   10.5366    9.5402 C   0  0  0  0  0  0  0  0  0  0  0  0
   21.8183   11.5505    9.8443 C   0  0  0  0  0  0  0  0  0  0  0  0
   22.0758   12.8309   10.4644 C   0  0  0  0  0  0  0  0  0  0  0  0
   21.4043   12.7654   11.8402 C   0  0  0  0  0  0  0  0  0  0  0  0
   20.1331   12.0944   11.8237 O   0  0  0  0  0  0  0  0  0  0  0  0
   19.0848   12.8238   11.2380 C   0  0  0  0  0  0  0  0  0  0  0  0
   17.7292   12.1738   11.5250 C   0  0  0  0  0  0  0  0  0  0  0  0
   17.0260   12.6192   12.4321 O   0  0  0  0  0  0  0  0  0  0  0  0
   17.3690   11.1191   10.6986 N   0  0  0  0  0  0  0  0  0  0  0  0
   16.2957   10.2240   10.9304 C   0  0  0  0  0  0  0  0  0  0  0  0
   15.7532   10.0657   12.1938 C   0  0  0  0  0  0  0  0  0  0  0  0
   14.8935    9.0047   12.4665 C   0  0  0  0  0  0  0  0  0  0  0  0
   14.3041    8.9857   14.0716 Cl  0  0  0  0  0  0  0  0  0  0  0  0
   14.5619    8.0771   11.4764 C   0  0  0  0  0  0  0  0  0  0  0  0
   13.4466    6.3184   11.7595 I   0  0  0  0  0  0  0  0  0  0  0  0
   14.9993    8.3103   10.1836 C   0  0  0  0  0  0  0  0  0  0  0  0
   15.8256    9.3976    9.8992 C   0  0  0  0  0  0  0  0  0  0  0  0
   16.2901    9.4854    8.5946 N   0  0  0  0  0  0  0  0  0  0  0  0
  1  2  3  0
  2  3  1  0
  3  4  1  0
  4  5  1  0
  5  6  1  0
  6  7  1  0
  7  8  2  0
  7  9  1  0
  9 10  1  0
 10 11  2  0
 11 12  1  0
 12 13  1  0
 12 14  2  0
 14 15  1  0
 14 16  1  0
 16 17  2  0
 17 18  1  0
 17 10  1  0
M  END
>  <HIPPO ID>  (346) 
113527

>  <alias>  (346) 
None

>  <ref_mols>  (346) 
c0692a,c1116a

>  <submitter_email>  (346) 
None

>  <ref_pdb>  (346) 
c0270a

>  <inchikey>  (346) 
UFSOGANPUFBMQU-UHFFFAOYSA-N

>  <generation_date>  (346) 
None

>  <original ID>  (346) 
UFSOGANPUFBMQU-UHFFFAOYSA-N

>  <tags>  (346) 
[]

>  <exports>  (346) 
nan

>  <method>  (346) 
None

>  <submitter_name>  (346) 
None

>  <original SMILES>  (346) 
C#CCCOCC(=O)Nc1cc(Cl)c(I)cc1N

>  <ref_url>  (346) 
None

$$$$
AKSZIRMHVDMFQN-UHFFFAOYSA-N
     RDKit          3D

 18 18  0  0  0  0  0  0  0  0999 V2000
   24.6080   13.4895   10.2527 C   0  0  0  0  0  0  0  0  0  0  0  0
   23.4978   13.0581   10.1170 C   0  0  0  0  0  0  0  0  0  0  0  0
   22.1659   12.5622    9.8020 C   0  0  0  0  0  0  0  0  0  0  0  0
   21.5827   11.5809   10.8122 C   0  0  0  0  0  0  0  0  0  0  0  0
   20.1655   11.3877   10.6233 O   0  0  0  0  0  0  0  0  0  0  0  0
   19.3929   12.4422   11.1805 C   0  0  0  0  0  0  0  0  0  0  0  0
   17.9268   12.0702   11.4170 C   0  0  0  0  0  0  0  0  0  0  0  0
   17.2454   12.7171   12.2130 O   0  0  0  0  0  0  0  0  0  0  0  0
   17.4553   11.0180   10.6635 N   0  0  0  0  0  0  0  0  0  0  0  0
   16.3218   10.2338   10.9590 C   0  0  0  0  0  0  0  0  0  0  0  0
   15.7912   10.1882   12.2319 C   0  0  0  0  0  0  0  0  0  0  0  0
   14.9333    9.1484   12.5875 C   0  0  0  0  0  0  0  0  0  0  0  0
   14.3785    9.1961   14.5578 I   0  0  0  0  0  0  0  0  0  0  0  0
   14.5542    8.1779   11.6569 C   0  0  0  0  0  0  0  0  0  0  0  0
   13.5842    6.7871   11.9952 Cl  0  0  0  0  0  0  0  0  0  0  0  0
   14.9639    8.3216   10.3472 C   0  0  0  0  0  0  0  0  0  0  0  0
   15.8246    9.3579    9.9924 C   0  0  0  0  0  0  0  0  0  0  0  0
   16.3332    9.3394    8.7160 N   0  0  0  0  0  0  0  0  0  0  0  0
  1  2  3  0
  2  3  1  0
  3  4  1  0
  4  5  1  0
  5  6  1  0
  6  7  1  0
  7  8  2  0
  7  9  1  0
  9 10  1  0
 10 11  2  0
 11 12  1  0
 12 13  1  0
 12 14  2  0
 14 15  1  0
 14 16  1  0
 16 17  2  0
 17 18  1  0
 17 10  1  0
M  END
>  <HIPPO ID>  (347) 
113528

>  <alias>  (347) 
None

>  <ref_mols>  (347) 
c0692a,c1116a

>  <submitter_email>  (347) 
None

>  <ref_pdb>  (347) 
c0270a

>  <inchikey>  (347) 
AKSZIRMHVDMFQN-UHFFFAOYSA-N

>  <generation_date>  (347) 
None

>  <original ID>  (347) 
AKSZIRMHVDMFQN-UHFFFAOYSA-N

>  <tags>  (347) 
[]

>  <exports>  (347) 
nan

>  <method>  (347) 
None

>  <submitter_name>  (347) 
None

>  <original SMILES>  (347) 
C#CCCOCC(=O)Nc1cc(I)c(Cl)cc1N

>  <ref_url>  (347) 
None

$$$$
UUNJGLVTGLWFTP-UHFFFAOYSA-N
     RDKit          3D

 18 18  0  0  0  0  0  0  0  0999 V2000
   24.4888   13.3677   10.3196 C   0  0  0  0  0  0  0  0  0  0  0  0
   23.3007   13.2549   10.4391 C   0  0  0  0  0  0  0  0  0  0  0  0
   21.8490   13.1584   10.5419 C   0  0  0  0  0  0  0  0  0  0  0  0
   21.3623   11.7121   10.6769 C   0  0  0  0  0  0  0  0  0  0  0  0
   19.9440   11.5711   10.4817 O   0  0  0  0  0  0  0  0  0  0  0  0
   19.1880   12.5070   11.2312 C   0  0  0  0  0  0  0  0  0  0  0  0
   17.7132   12.1605   11.3569 C   0  0  0  0  0  0  0  0  0  0  0  0
   16.9611   12.9188   11.9649 O   0  0  0  0  0  0  0  0  0  0  0  0
   17.3415   11.0013   10.7236 N   0  0  0  0  0  0  0  0  0  0  0  0
   16.2189   10.1918   10.9925 C   0  0  0  0  0  0  0  0  0  0  0  0
   15.7599    9.3638    9.9398 C   0  0  0  0  0  0  0  0  0  0  0  0
   16.2336    9.4879    8.6375 N   0  0  0  0  0  0  0  0  0  0  0  0
   14.9282    8.2763   10.1968 C   0  0  0  0  0  0  0  0  0  0  0  0
   14.4478    8.0767   11.4698 C   0  0  0  0  0  0  0  0  0  0  0  0
   14.7499    9.0180   12.4446 C   0  0  0  0  0  0  0  0  0  0  0  0
   14.1080    8.9641   13.6117 F   0  0  0  0  0  0  0  0  0  0  0  0
   15.6447   10.0644   12.2583 C   0  0  0  0  0  0  0  0  0  0  0  0
   15.9005   10.9199   13.4590 C   0  0  0  0  0  0  0  0  0  0  0  0
  1  2  3  0
  2  3  1  0
  3  4  1  0
  4  5  1  0
  5  6  1  0
  6  7  1  0
  7  8  2  0
  7  9  1  0
  9 10  1  0
 10 11  2  0
 11 12  1  0
 11 13  1  0
 13 14  2  0
 14 15  1  0
 15 16  1  0
 15 17  2  0
 17 18  1  0
 17 10  1  0
M  END
>  <HIPPO ID>  (348) 
113539

>  <alias>  (348) 
None

>  <ref_mols>  (348) 
c0692a,c1116a

>  <submitter_email>  (348) 
None

>  <ref_pdb>  (348) 
c0270a

>  <inchikey>  (348) 
UUNJGLVTGLWFTP-UHFFFAOYSA-N

>  <generation_date>  (348) 
None

>  <original ID>  (348) 
UUNJGLVTGLWFTP-UHFFFAOYSA-N

>  <tags>  (348) 
[]

>  <exports>  (348) 
nan

>  <method>  (348) 
None

>  <submitter_name>  (348) 
None

>  <original SMILES>  (348) 
C#CCCOCC(=O)Nc1c(N)ccc(F)c1C

>  <ref_url>  (348) 
None

$$$$
OEPZGLKSVYQLCN-UHFFFAOYSA-N
     RDKit          3D

 18 18  0  0  0  0  0  0  0  0999 V2000
   23.9205   11.5266    8.6036 C   0  0  0  0  0  0  0  0  0  0  0  0
   23.0789   11.8161    9.4030 C   0  0  0  0  0  0  0  0  0  0  0  0
   22.0412   12.1387   10.3616 C   0  0  0  0  0  0  0  0  0  0  0  0
   21.0915   10.9668   10.4399 C   0  0  0  0  0  0  0  0  0  0  0  0
   19.9534   11.1222   11.2595 O   0  0  0  0  0  0  0  0  0  0  0  0
   19.2506   12.3485   11.1877 C   0  0  0  0  0  0  0  0  0  0  0  0
   17.7834   12.0311   11.4424 C   0  0  0  0  0  0  0  0  0  0  0  0
   17.1345   12.6254   12.2988 O   0  0  0  0  0  0  0  0  0  0  0  0
   17.2905   11.0451   10.6086 N   0  0  0  0  0  0  0  0  0  0  0  0
   16.1899   10.2110   10.8615 C   0  0  0  0  0  0  0  0  0  0  0  0
   15.6195   10.1158   12.1139 C   0  0  0  0  0  0  0  0  0  0  0  0
   14.7707    9.0570   12.3764 C   0  0  0  0  0  0  0  0  0  0  0  0
   14.2004    9.0548   13.5800 F   0  0  0  0  0  0  0  0  0  0  0  0
   14.4812    8.0842   11.4187 C   0  0  0  0  0  0  0  0  0  0  0  0
   13.4464    6.5392   11.7768 Br  0  0  0  0  0  0  0  0  0  0  0  0
   14.9367    8.2677   10.1309 C   0  0  0  0  0  0  0  0  0  0  0  0
   15.7480    9.3575    9.8374 C   0  0  0  0  0  0  0  0  0  0  0  0
   16.2516    9.4419    8.5476 N   0  0  0  0  0  0  0  0  0  0  0  0
  1  2  3  0
  2  3  1  0
  3  4  1  0
  4  5  1  0
  5  6  1  0
  6  7  1  0
  7  8  2  0
  7  9  1  0
  9 10  1  0
 10 11  2  0
 11 12  1  0
 12 13  1  0
 12 14  2  0
 14 15  1  0
 14 16  1  0
 16 17  2  0
 17 18  1  0
 17 10  1  0
M  END
>  <HIPPO ID>  (349) 
113541

>  <alias>  (349) 
None

>  <ref_mols>  (349) 
c0692a,c1116a

>  <submitter_email>  (349) 
None

>  <ref_pdb>  (349) 
c0270a

>  <inchikey>  (349) 
OEPZGLKSVYQLCN-UHFFFAOYSA-N

>  <generation_date>  (349) 
None

>  <original ID>  (349) 
OEPZGLKSVYQLCN-UHFFFAOYSA-N

>  <tags>  (349) 
[]

>  <exports>  (349) 
nan

>  <method>  (349) 
None

>  <submitter_name>  (349) 
None

>  <original SMILES>  (349) 
C#CCCOCC(=O)Nc1cc(F)c(Br)cc1N

>  <ref_url>  (349) 
None

$$$$
TZOQPQCRILSKFN-UHFFFAOYSA-N
     RDKit          3D

 18 18  0  0  0  0  0  0  0  0999 V2000
   23.8589   11.9701    8.5524 C   0  0  0  0  0  0  0  0  0  0  0  0
   22.9829   11.6099    9.2856 C   0  0  0  0  0  0  0  0  0  0  0  0
   21.9148   11.0801   10.1100 C   0  0  0  0  0  0  0  0  0  0  0  0
   21.1353   12.1790   10.7762 C   0  0  0  0  0  0  0  0  0  0  0  0
   19.7761   11.7524   10.7826 O   0  0  0  0  0  0  0  0  0  0  0  0
   18.9671   12.7154   11.4237 C   0  0  0  0  0  0  0  0  0  0  0  0
   17.5592   12.1838   11.5701 C   0  0  0  0  0  0  0  0  0  0  0  0
   16.7933   12.6972   12.3830 O   0  0  0  0  0  0  0  0  0  0  0  0
   17.2436   11.1333   10.7266 N   0  0  0  0  0  0  0  0  0  0  0  0
   16.2019   10.2189   10.9445 C   0  0  0  0  0  0  0  0  0  0  0  0
   15.7021   10.0525   12.2236 C   0  0  0  0  0  0  0  0  0  0  0  0
   14.8338    9.0145   12.4904 C   0  0  0  0  0  0  0  0  0  0  0  0
   14.2370    8.9217   14.2624 Br  0  0  0  0  0  0  0  0  0  0  0  0
   14.4355    8.1437   11.4808 C   0  0  0  0  0  0  0  0  0  0  0  0
   13.5355    7.1744   11.7017 F   0  0  0  0  0  0  0  0  0  0  0  0
   14.8830    8.3336   10.1890 C   0  0  0  0  0  0  0  0  0  0  0  0
   15.7389    9.3948    9.9063 C   0  0  0  0  0  0  0  0  0  0  0  0
   16.2272    9.4860    8.6108 N   0  0  0  0  0  0  0  0  0  0  0  0
  1  2  3  0
  2  3  1  0
  3  4  1  0
  4  5  1  0
  5  6  1  0
  6  7  1  0
  7  8  2  0
  7  9  1  0
  9 10  1  0
 10 11  2  0
 11 12  1  0
 12 13  1  0
 12 14  2  0
 14 15  1  0
 14 16  1  0
 16 17  2  0
 17 18  1  0
 17 10  1  0
M  END
>  <HIPPO ID>  (350) 
113542

>  <alias>  (350) 
None

>  <ref_mols>  (350) 
c0692a,c1116a

>  <submitter_email>  (350) 
None

>  <ref_pdb>  (350) 
c0270a

>  <inchikey>  (350) 
TZOQPQCRILSKFN-UHFFFAOYSA-N

>  <generation_date>  (350) 
None

>  <original ID>  (350) 
TZOQPQCRILSKFN-UHFFFAOYSA-N

>  <tags>  (350) 
[]

>  <exports>  (350) 
nan

>  <method>  (350) 
None

>  <submitter_name>  (350) 
None

>  <original SMILES>  (350) 
C#CCCOCC(=O)Nc1cc(Br)c(F)cc1N

>  <ref_url>  (350) 
None

$$$$
JWCBGGBAFJINGE-UHFFFAOYSA-N
     RDKit          3D

 18 18  0  0  0  0  0  0  0  0999 V2000
   22.9914   14.7809   12.7287 C   0  0  0  0  0  0  0  0  0  0  0  0
   23.1970   14.0623   11.7894 C   0  0  0  0  0  0  0  0  0  0  0  0
   23.4688   13.1825   10.6454 C   0  0  0  0  0  0  0  0  0  0  0  0
   22.1703   12.6938   10.0249 C   0  0  0  0  0  0  0  0  0  0  0  0
   21.5145   11.5536   10.8030 C   0  0  0  0  0  0  0  0  0  0  0  0
   20.1111   11.4475   10.5234 O   0  0  0  0  0  0  0  0  0  0  0  0
   19.3663   12.4829   11.1506 C   0  0  0  0  0  0  0  0  0  0  0  0
   17.9051   12.1144   11.3724 C   0  0  0  0  0  0  0  0  0  0  0  0
   17.2264   12.7500   12.1794 O   0  0  0  0  0  0  0  0  0  0  0  0
   17.4384   11.0751   10.5944 N   0  0  0  0  0  0  0  0  0  0  0  0
   16.3218   10.2742   10.8940 C   0  0  0  0  0  0  0  0  0  0  0  0
   15.8393   10.2200   12.1870 C   0  0  0  0  0  0  0  0  0  0  0  0
   14.9859    9.1977   12.5546 C   0  0  0  0  0  0  0  0  0  0  0  0
   14.4135    9.1965   14.5098 I   0  0  0  0  0  0  0  0  0  0  0  0
   14.5834    8.2287   11.6425 C   0  0  0  0  0  0  0  0  0  0  0  0
   14.9558    8.3634   10.3127 C   0  0  0  0  0  0  0  0  0  0  0  0
   15.7836    9.4167    9.9244 C   0  0  0  0  0  0  0  0  0  0  0  0
   16.1921    9.4645    8.5973 N   0  0  0  0  0  0  0  0  0  0  0  0
  1  2  3  0
  2  3  1  0
  3  4  1  0
  4  5  1  0
  5  6  1  0
  6  7  1  0
  7  8  1  0
  8  9  2  0
  8 10  1  0
 10 11  1  0
 11 12  2  0
 12 13  1  0
 13 14  1  0
 13 15  2  0
 15 16  1  0
 16 17  2  0
 17 18  1  0
 17 11  1  0
M  END
>  <HIPPO ID>  (351) 
113546

>  <alias>  (351) 
None

>  <ref_mols>  (351) 
c0692a,c1116a

>  <submitter_email>  (351) 
None

>  <ref_pdb>  (351) 
c0270a

>  <inchikey>  (351) 
JWCBGGBAFJINGE-UHFFFAOYSA-N

>  <generation_date>  (351) 
None

>  <original ID>  (351) 
JWCBGGBAFJINGE-UHFFFAOYSA-N

>  <tags>  (351) 
[]

>  <exports>  (351) 
nan

>  <method>  (351) 
None

>  <submitter_name>  (351) 
None

>  <original SMILES>  (351) 
C#CCCCOCC(=O)Nc1cc(I)ccc1N

>  <ref_url>  (351) 
None

$$$$
LUEVJQPRWCFBND-UHFFFAOYSA-N
     RDKit          3D

 18 18  0  0  0  0  0  0  0  0999 V2000
   24.2156   14.4146   12.3166 C   0  0  0  0  0  0  0  0  0  0  0  0
   23.8576   13.3168   11.9996 C   0  0  0  0  0  0  0  0  0  0  0  0
   23.5923   11.9104   11.7298 C   0  0  0  0  0  0  0  0  0  0  0  0
   22.1254   11.5361   11.7835 C   0  0  0  0  0  0  0  0  0  0  0  0
   21.4139   11.8394   10.4757 C   0  0  0  0  0  0  0  0  0  0  0  0
   20.0196   11.5278   10.5669 O   0  0  0  0  0  0  0  0  0  0  0  0
   19.2876   12.5692   11.1996 C   0  0  0  0  0  0  0  0  0  0  0  0
   17.8379   12.1816   11.4557 C   0  0  0  0  0  0  0  0  0  0  0  0
   17.1663   12.8103   12.2716 O   0  0  0  0  0  0  0  0  0  0  0  0
   17.3913   11.1227   10.6952 N   0  0  0  0  0  0  0  0  0  0  0  0
   16.2828   10.3066   10.9845 C   0  0  0  0  0  0  0  0  0  0  0  0
   15.6671   10.3536   12.2198 C   0  0  0  0  0  0  0  0  0  0  0  0
   14.7925    9.3500   12.5628 C   0  0  0  0  0  0  0  0  0  0  0  0
   14.1382    9.4901   13.7139 F   0  0  0  0  0  0  0  0  0  0  0  0
   14.5294    8.2725   11.7245 C   0  0  0  0  0  0  0  0  0  0  0  0
   15.0250    8.3006   10.4348 C   0  0  0  0  0  0  0  0  0  0  0  0
   15.8944    9.3238   10.0557 C   0  0  0  0  0  0  0  0  0  0  0  0
   16.2072    9.4342    8.7135 N   0  0  0  0  0  0  0  0  0  0  0  0
  1  2  3  0
  2  3  1  0
  3  4  1  0
  4  5  1  0
  5  6  1  0
  6  7  1  0
  7  8  1  0
  8  9  2  0
  8 10  1  0
 10 11  1  0
 11 12  2  0
 12 13  1  0
 13 14  1  0
 13 15  2  0
 15 16  1  0
 16 17  2  0
 17 18  1  0
 17 11  1  0
M  END
>  <HIPPO ID>  (352) 
113548

>  <alias>  (352) 
None

>  <ref_mols>  (352) 
c0692a,c1116a

>  <submitter_email>  (352) 
None

>  <ref_pdb>  (352) 
c0270a

>  <inchikey>  (352) 
LUEVJQPRWCFBND-UHFFFAOYSA-N

>  <generation_date>  (352) 
None

>  <original ID>  (352) 
LUEVJQPRWCFBND-UHFFFAOYSA-N

>  <tags>  (352) 
[]

>  <exports>  (352) 
nan

>  <method>  (352) 
None

>  <submitter_name>  (352) 
None

>  <original SMILES>  (352) 
C#CCCCOCC(=O)Nc1cc(F)ccc1N

>  <ref_url>  (352) 
None

$$$$
QFMMSRAGENNATR-NSHDSACASA-N
     RDKit          3D

 18 18  0  0  0  0  0  0  0  0999 V2000
   21.6710   11.3263   10.3845 C   0  0  0  0  0  0  0  0  0  0  0  0
   20.2563   11.4639   10.4314 O   0  0  0  0  0  0  0  0  0  0  0  0
   19.7424   12.5723   11.1717 C   0  0  2  0  0  0  0  0  0  0  0  0
   20.1365   13.8934   10.4888 C   0  0  0  0  0  0  0  0  0  0  0  0
   20.2587   12.8891   12.5853 C   0  0  0  0  0  0  0  0  0  0  0  0
   19.8795   13.8105   13.2921 O   0  0  0  0  0  0  0  0  0  0  0  0
   21.3014   12.1303   12.9623 O   0  0  0  0  0  0  0  0  0  0  0  0
   18.1911   12.3230   11.2626 C   0  0  0  0  0  0  0  0  0  0  0  0
   17.4420   13.0704   11.8935 O   0  0  0  0  0  0  0  0  0  0  0  0
   17.7135   11.1897   10.5959 N   0  0  0  0  0  0  0  0  0  0  0  0
   16.5464   10.4527   10.9279 C   0  0  0  0  0  0  0  0  0  0  0  0
   16.0205   10.5505   12.2000 C   0  0  0  0  0  0  0  0  0  0  0  0
   15.1353    9.5846   12.6515 C   0  0  0  0  0  0  0  0  0  0  0  0
   14.5256    9.7741   14.5729 I   0  0  0  0  0  0  0  0  0  0  0  0
   14.7266    8.5271   11.8501 C   0  0  0  0  0  0  0  0  0  0  0  0
   15.1214    8.5099   10.5281 C   0  0  0  0  0  0  0  0  0  0  0  0
   16.0337    9.4624   10.0658 C   0  0  0  0  0  0  0  0  0  0  0  0
   16.2429    9.4935    8.7000 N   0  0  0  0  0  0  0  0  0  0  0  0
  1  2  1  0
  3  2  1  0
  3  4  1  6
  3  5  1  0
  5  6  2  0
  5  7  1  0
  3  8  1  0
  8  9  2  0
  8 10  1  0
 10 11  1  0
 11 12  2  0
 12 13  1  0
 13 14  1  0
 13 15  2  0
 15 16  1  0
 16 17  2  0
 17 18  1  0
 17 11  1  0
M  END
>  <HIPPO ID>  (353) 
113692

>  <alias>  (353) 
None

>  <ref_mols>  (353) 
c0692a,c1116a

>  <submitter_email>  (353) 
None

>  <ref_pdb>  (353) 
c0270a

>  <inchikey>  (353) 
QFMMSRAGENNATR-NSHDSACASA-N

>  <generation_date>  (353) 
None

>  <original ID>  (353) 
QFMMSRAGENNATR-NSHDSACASA-N

>  <tags>  (353) 
[]

>  <exports>  (353) 
nan

>  <method>  (353) 
None

>  <submitter_name>  (353) 
None

>  <original SMILES>  (353) 
CO[C@](C)(C(=O)O)C(=O)Nc1cc(I)ccc1N

>  <ref_url>  (353) 
None

$$$$
QFMMSRAGENNATR-LLVKDONJSA-N
     RDKit          3D

 18 18  0  0  0  0  0  0  0  0999 V2000
   21.6886   11.1895   10.6068 C   0  0  0  0  0  0  0  0  0  0  0  0
   20.2854   11.2925   10.8010 O   0  0  0  0  0  0  0  0  0  0  0  0
   19.7728   12.5863   11.1469 C   0  0  1  0  0  0  0  0  0  0  0  0
   20.1429   12.9868   12.5883 C   0  0  0  0  0  0  0  0  0  0  0  0
   20.3143   13.7798   10.3302 C   0  0  0  0  0  0  0  0  0  0  0  0
   19.7617   14.5080    9.5289 O   0  0  0  0  0  0  0  0  0  0  0  0
   21.6306   14.0111   10.5427 O   0  0  0  0  0  0  0  0  0  0  0  0
   18.2164   12.3847   11.1525 C   0  0  0  0  0  0  0  0  0  0  0  0
   17.4656   13.1737   11.7344 O   0  0  0  0  0  0  0  0  0  0  0  0
   17.7349   11.2287   10.5286 N   0  0  0  0  0  0  0  0  0  0  0  0
   16.5659   10.5065   10.8874 C   0  0  0  0  0  0  0  0  0  0  0  0
   16.0419   10.6498   12.1548 C   0  0  0  0  0  0  0  0  0  0  0  0
   15.1619    9.6960   12.6407 C   0  0  0  0  0  0  0  0  0  0  0  0
   14.5636    9.9454   14.5567 I   0  0  0  0  0  0  0  0  0  0  0  0
   14.7555    8.6088   11.8785 C   0  0  0  0  0  0  0  0  0  0  0  0
   15.1466    8.5459   10.5573 C   0  0  0  0  0  0  0  0  0  0  0  0
   16.0551    9.4841   10.0617 C   0  0  0  0  0  0  0  0  0  0  0  0
   16.2625    9.4712    8.6961 N   0  0  0  0  0  0  0  0  0  0  0  0
  1  2  1  0
  3  2  1  0
  3  4  1  1
  3  5  1  0
  5  6  2  0
  5  7  1  0
  3  8  1  0
  8  9  2  0
  8 10  1  0
 10 11  1  0
 11 12  2  0
 12 13  1  0
 13 14  1  0
 13 15  2  0
 15 16  1  0
 16 17  2  0
 17 18  1  0
 17 11  1  0
M  END
>  <HIPPO ID>  (354) 
113693

>  <alias>  (354) 
None

>  <ref_mols>  (354) 
c0692a,c1116a

>  <submitter_email>  (354) 
None

>  <ref_pdb>  (354) 
c0270a

>  <inchikey>  (354) 
QFMMSRAGENNATR-LLVKDONJSA-N

>  <generation_date>  (354) 
None

>  <original ID>  (354) 
QFMMSRAGENNATR-LLVKDONJSA-N

>  <tags>  (354) 
[]

>  <exports>  (354) 
nan

>  <method>  (354) 
None

>  <submitter_name>  (354) 
None

>  <original SMILES>  (354) 
CO[C@@](C)(C(=O)O)C(=O)Nc1cc(I)ccc1N

>  <ref_url>  (354) 
None

$$$$
AXIRKSHUFYFYNN-NSHDSACASA-N
     RDKit          3D

 18 18  0  0  0  0  0  0  0  0999 V2000
   21.6352   11.3029   10.3057 C   0  0  0  0  0  0  0  0  0  0  0  0
   20.2234   11.4926   10.3359 O   0  0  0  0  0  0  0  0  0  0  0  0
   19.7497   12.5635   11.1633 C   0  0  2  0  0  0  0  0  0  0  0  0
   20.1273   13.9182   10.5414 C   0  0  0  0  0  0  0  0  0  0  0  0
   20.4133   12.7042   12.5334 C   0  0  0  0  0  0  0  0  0  0  0  0
   21.4071   12.1023   12.9081 O   0  0  0  0  0  0  0  0  0  0  0  0
   19.8802   13.6708   13.3042 O   0  0  0  0  0  0  0  0  0  0  0  0
   18.2018   12.3306   11.3201 C   0  0  0  0  0  0  0  0  0  0  0  0
   17.4808   13.0831   11.9755 O   0  0  0  0  0  0  0  0  0  0  0  0
   17.7028   11.2007   10.6700 N   0  0  0  0  0  0  0  0  0  0  0  0
   16.5117   10.4942   10.9784 C   0  0  0  0  0  0  0  0  0  0  0  0
   15.8420   10.7000   12.1710 C   0  0  0  0  0  0  0  0  0  0  0  0
   14.8977    9.7774   12.5750 C   0  0  0  0  0  0  0  0  0  0  0  0
   14.1843   10.0616   13.6634 F   0  0  0  0  0  0  0  0  0  0  0  0
   14.6468    8.6125   11.8617 C   0  0  0  0  0  0  0  0  0  0  0  0
   15.1707    8.4918   10.5932 C   0  0  0  0  0  0  0  0  0  0  0  0
   16.0812    9.4449   10.1358 C   0  0  0  0  0  0  0  0  0  0  0  0
   16.3335    9.4501    8.7775 N   0  0  0  0  0  0  0  0  0  0  0  0
  1  2  1  0
  3  2  1  0
  3  4  1  6
  3  5  1  0
  5  6  2  0
  5  7  1  0
  3  8  1  0
  8  9  2  0
  8 10  1  0
 10 11  1  0
 11 12  2  0
 12 13  1  0
 13 14  1  0
 13 15  2  0
 15 16  1  0
 16 17  2  0
 17 18  1  0
 17 11  1  0
M  END
>  <HIPPO ID>  (355) 
113699

>  <alias>  (355) 
None

>  <ref_mols>  (355) 
c0692a,c1116a

>  <submitter_email>  (355) 
None

>  <ref_pdb>  (355) 
c0270a

>  <inchikey>  (355) 
AXIRKSHUFYFYNN-NSHDSACASA-N

>  <generation_date>  (355) 
None

>  <original ID>  (355) 
AXIRKSHUFYFYNN-NSHDSACASA-N

>  <tags>  (355) 
[]

>  <exports>  (355) 
nan

>  <method>  (355) 
None

>  <submitter_name>  (355) 
None

>  <original SMILES>  (355) 
CO[C@](C)(C(=O)O)C(=O)Nc1cc(F)ccc1N

>  <ref_url>  (355) 
None

$$$$
AXIRKSHUFYFYNN-LLVKDONJSA-N
     RDKit          3D

 18 18  0  0  0  0  0  0  0  0999 V2000
   21.6866   11.0609   10.5655 C   0  0  0  0  0  0  0  0  0  0  0  0
   20.2860   11.2299   10.7392 O   0  0  0  0  0  0  0  0  0  0  0  0
   19.8303   12.5284   11.1488 C   0  0  1  0  0  0  0  0  0  0  0  0
   20.3934   12.9187   12.5317 C   0  0  0  0  0  0  0  0  0  0  0  0
   20.2811   13.7165   10.2777 C   0  0  0  0  0  0  0  0  0  0  0  0
   19.6507   14.6791    9.8871 O   0  0  0  0  0  0  0  0  0  0  0  0
   21.5933   13.6909    9.9631 O   0  0  0  0  0  0  0  0  0  0  0  0
   18.2681   12.3569   11.2745 C   0  0  0  0  0  0  0  0  0  0  0  0
   17.5756   13.1332   11.9355 O   0  0  0  0  0  0  0  0  0  0  0  0
   17.7272   11.2440   10.6229 N   0  0  0  0  0  0  0  0  0  0  0  0
   16.5282   10.5552   10.9542 C   0  0  0  0  0  0  0  0  0  0  0  0
   15.8617   10.7908   12.1429 C   0  0  0  0  0  0  0  0  0  0  0  0
   14.9201    9.8758   12.5736 C   0  0  0  0  0  0  0  0  0  0  0  0
   14.2093   10.1822   13.6577 F   0  0  0  0  0  0  0  0  0  0  0  0
   14.6726    8.6907   11.8934 C   0  0  0  0  0  0  0  0  0  0  0  0
   15.1872    8.5407   10.6246 C   0  0  0  0  0  0  0  0  0  0  0  0
   16.0890    9.4871   10.1379 C   0  0  0  0  0  0  0  0  0  0  0  0
   16.3169    9.4693    8.7744 N   0  0  0  0  0  0  0  0  0  0  0  0
  1  2  1  0
  3  2  1  0
  3  4  1  1
  3  5  1  0
  5  6  2  0
  5  7  1  0
  3  8  1  0
  8  9  2  0
  8 10  1  0
 10 11  1  0
 11 12  2  0
 12 13  1  0
 13 14  1  0
 13 15  2  0
 15 16  1  0
 16 17  2  0
 17 18  1  0
 17 11  1  0
M  END
>  <HIPPO ID>  (356) 
113700

>  <alias>  (356) 
None

>  <ref_mols>  (356) 
c0692a,c1116a

>  <submitter_email>  (356) 
None

>  <ref_pdb>  (356) 
c0270a

>  <inchikey>  (356) 
AXIRKSHUFYFYNN-LLVKDONJSA-N

>  <generation_date>  (356) 
None

>  <original ID>  (356) 
AXIRKSHUFYFYNN-LLVKDONJSA-N

>  <tags>  (356) 
[]

>  <exports>  (356) 
nan

>  <method>  (356) 
None

>  <submitter_name>  (356) 
None

>  <original SMILES>  (356) 
CO[C@@](C)(C(=O)O)C(=O)Nc1cc(F)ccc1N

>  <ref_url>  (356) 
None

$$$$
KHCYLOPQACKTLE-NSHDSACASA-N
     RDKit          3D

 18 18  0  0  0  0  0  0  0  0999 V2000
   21.7896   11.4016   10.4107 C   0  0  0  0  0  0  0  0  0  0  0  0
   20.3759   11.5328   10.4383 O   0  0  0  0  0  0  0  0  0  0  0  0
   19.8455   12.6386   11.1713 C   0  0  2  0  0  0  0  0  0  0  0  0
   20.2264   13.9616   10.4856 C   0  0  0  0  0  0  0  0  0  0  0  0
   20.2998   12.9424   12.6048 C   0  0  0  0  0  0  0  0  0  0  0  0
   19.8219   13.8074   13.3243 O   0  0  0  0  0  0  0  0  0  0  0  0
   21.3865   12.2492   12.9906 O   0  0  0  0  0  0  0  0  0  0  0  0
   18.3039   12.3931   11.2127 C   0  0  0  0  0  0  0  0  0  0  0  0
   17.5121   13.1955   11.7126 O   0  0  0  0  0  0  0  0  0  0  0  0
   17.8896   11.1959   10.6460 N   0  0  0  0  0  0  0  0  0  0  0  0
   16.6835   10.5012   10.8806 C   0  0  0  0  0  0  0  0  0  0  0  0
   16.2756    9.5798    9.9003 C   0  0  0  0  0  0  0  0  0  0  0  0
   15.2617    8.6577   10.1394 C   0  0  0  0  0  0  0  0  0  0  0  0
   14.6889    8.6110   11.3962 C   0  0  0  0  0  0  0  0  0  0  0  0
   15.0290    9.5807   12.3424 C   0  0  0  0  0  0  0  0  0  0  0  0
   14.2725    9.5937   13.8864 Cl  0  0  0  0  0  0  0  0  0  0  0  0
   15.9819   10.5762   12.0918 C   0  0  0  0  0  0  0  0  0  0  0  0
   16.3928   11.4050   13.1717 N   0  0  0  0  0  0  0  0  0  0  0  0
  1  2  1  0
  3  2  1  0
  3  4  1  6
  3  5  1  0
  5  6  2  0
  5  7  1  0
  3  8  1  0
  8  9  2  0
  8 10  1  0
 10 11  1  0
 11 12  2  0
 12 13  1  0
 13 14  2  0
 14 15  1  0
 15 16  1  0
 15 17  2  0
 17 18  1  0
 17 11  1  0
M  END
>  <HIPPO ID>  (357) 
113716

>  <alias>  (357) 
None

>  <ref_mols>  (357) 
c0692a,c1116a

>  <submitter_email>  (357) 
None

>  <ref_pdb>  (357) 
c0270a

>  <inchikey>  (357) 
KHCYLOPQACKTLE-NSHDSACASA-N

>  <generation_date>  (357) 
None

>  <original ID>  (357) 
KHCYLOPQACKTLE-NSHDSACASA-N

>  <tags>  (357) 
[]

>  <exports>  (357) 
nan

>  <method>  (357) 
None

>  <submitter_name>  (357) 
None

>  <original SMILES>  (357) 
CO[C@](C)(C(=O)O)C(=O)Nc1cccc(Cl)c1N

>  <ref_url>  (357) 
None

$$$$
RGESAMWPEORMSZ-UHFFFAOYSA-N
     RDKit          3D

 19 19  0  0  0  0  0  0  0  0999 V2000
   16.1670    9.4504    8.5713 N   0  0  0  0  0  0  0  0  0  0  0  0
   15.7692    9.3854    9.8980 C   0  0  0  0  0  0  0  0  0  0  0  0
   14.9327    8.3374   10.2821 C   0  0  0  0  0  0  0  0  0  0  0  0
   14.5658    8.1936   11.6130 C   0  0  0  0  0  0  0  0  0  0  0  0
   14.9847    9.1484   12.5314 C   0  0  0  0  0  0  0  0  0  0  0  0
   14.4124    9.1503   14.4882 I   0  0  0  0  0  0  0  0  0  0  0  0
   15.8519   10.1605   12.1672 C   0  0  0  0  0  0  0  0  0  0  0  0
   16.3256   10.2248   10.8705 C   0  0  0  0  0  0  0  0  0  0  0  0
   17.4441   11.0230   10.5578 N   0  0  0  0  0  0  0  0  0  0  0  0
   17.9136   12.0495   11.3570 C   0  0  0  0  0  0  0  0  0  0  0  0
   17.2664   12.6374   12.2171 O   0  0  0  0  0  0  0  0  0  0  0  0
   19.3728   12.4782   11.1512 C   0  0  0  0  0  0  0  0  0  0  0  0
   19.7912   13.5309   11.5977 O   0  0  0  0  0  0  0  0  0  0  0  0
   20.1060   11.5263   10.5340 O   0  0  0  0  0  0  0  0  0  0  0  0
   21.5392   11.7588   10.6196 C   0  0  0  0  0  0  0  0  0  0  0  0
   22.0891   12.9205    9.7811 C   0  0  0  0  0  0  0  0  0  0  0  0
   21.1611   13.8841    9.5540 F   0  0  0  0  0  0  0  0  0  0  0  0
   22.4953   12.5006    8.5720 F   0  0  0  0  0  0  0  0  0  0  0  0
   23.1456   13.4973   10.3777 F   0  0  0  0  0  0  0  0  0  0  0  0
  1  2  1  0
  2  3  2  0
  3  4  1  0
  4  5  2  0
  5  6  1  0
  5  7  1  0
  7  8  2  0
  8  9  1  0
  9 10  1  0
 10 11  2  0
 10 12  1  0
 12 13  2  0
 12 14  1  0
 14 15  1  0
 15 16  1  0
 16 17  1  0
 16 18  1  0
 16 19  1  0
  8  2  1  0
M  END
>  <HIPPO ID>  (358) 
113901

>  <alias>  (358) 
None

>  <ref_mols>  (358) 
c0692a,c1116a

>  <submitter_email>  (358) 
None

>  <ref_pdb>  (358) 
c0270a

>  <inchikey>  (358) 
RGESAMWPEORMSZ-UHFFFAOYSA-N

>  <generation_date>  (358) 
None

>  <original ID>  (358) 
RGESAMWPEORMSZ-UHFFFAOYSA-N

>  <tags>  (358) 
[]

>  <exports>  (358) 
nan

>  <method>  (358) 
None

>  <submitter_name>  (358) 
None

>  <original SMILES>  (358) 
Nc1ccc(I)cc1NC(=O)C(=O)OCC(F)(F)F

>  <ref_url>  (358) 
None

$$$$
ABHSWXHWYGQZDX-UHFFFAOYSA-N
     RDKit          3D

 19 19  0  0  0  0  0  0  0  0999 V2000
   16.2055    9.4337    8.5844 N   0  0  0  0  0  0  0  0  0  0  0  0
   15.7652    9.3838    9.8992 C   0  0  0  0  0  0  0  0  0  0  0  0
   14.9433    8.3243   10.2735 C   0  0  0  0  0  0  0  0  0  0  0  0
   14.4981    8.2389   11.5799 C   0  0  0  0  0  0  0  0  0  0  0  0
   14.8120    9.2686   12.4596 C   0  0  0  0  0  0  0  0  0  0  0  0
   14.2035    9.3662   13.6393 F   0  0  0  0  0  0  0  0  0  0  0  0
   15.7051   10.2624   12.1367 C   0  0  0  0  0  0  0  0  0  0  0  0
   16.2670   10.2598   10.8766 C   0  0  0  0  0  0  0  0  0  0  0  0
   17.3908   11.0405   10.5619 N   0  0  0  0  0  0  0  0  0  0  0  0
   17.9657   11.9947   11.3771 C   0  0  0  0  0  0  0  0  0  0  0  0
   17.4716   12.5132   12.3685 O   0  0  0  0  0  0  0  0  0  0  0  0
   19.3776   12.4177   10.9536 C   0  0  0  0  0  0  0  0  0  0  0  0
   19.7272   13.5797   10.8863 O   0  0  0  0  0  0  0  0  0  0  0  0
   20.1186   11.3251   10.6646 O   0  0  0  0  0  0  0  0  0  0  0  0
   21.5224   11.5958   10.4288 C   0  0  0  0  0  0  0  0  0  0  0  0
   22.3245   11.5788   11.7144 C   0  0  0  0  0  0  0  0  0  0  0  0
   21.7743   12.3861   12.6422 F   0  0  0  0  0  0  0  0  0  0  0  0
   22.3675   10.3377   12.2349 F   0  0  0  0  0  0  0  0  0  0  0  0
   23.5954   11.9808   11.5104 F   0  0  0  0  0  0  0  0  0  0  0  0
  1  2  1  0
  2  3  2  0
  3  4  1  0
  4  5  2  0
  5  6  1  0
  5  7  1  0
  7  8  2  0
  8  9  1  0
  9 10  1  0
 10 11  2  0
 10 12  1  0
 12 13  2  0
 12 14  1  0
 14 15  1  0
 15 16  1  0
 16 17  1  0
 16 18  1  0
 16 19  1  0
  8  2  1  0
M  END
>  <HIPPO ID>  (359) 
113935

>  <alias>  (359) 
None

>  <ref_mols>  (359) 
c0692a,c1116a

>  <submitter_email>  (359) 
None

>  <ref_pdb>  (359) 
c0270a

>  <inchikey>  (359) 
ABHSWXHWYGQZDX-UHFFFAOYSA-N

>  <generation_date>  (359) 
None

>  <original ID>  (359) 
ABHSWXHWYGQZDX-UHFFFAOYSA-N

>  <tags>  (359) 
[]

>  <exports>  (359) 
nan

>  <method>  (359) 
None

>  <submitter_name>  (359) 
None

>  <original SMILES>  (359) 
Nc1ccc(F)cc1NC(=O)C(=O)OCC(F)(F)F

>  <ref_url>  (359) 
None

$$$$
VNGHHQJXTXFIOW-UHFFFAOYSA-N
     RDKit          3D

 19 19  0  0  0  0  0  0  0  0999 V2000
   21.8486   13.3703   10.4881 C   0  0  0  0  0  0  0  0  0  0  0  0
   21.4845   11.9824   11.0082 C   0  0  0  0  0  0  0  0  0  0  0  0
   22.1144   10.9321   10.1234 C   0  0  0  0  0  0  0  0  0  0  0  0
   22.0759   11.8256   12.4040 C   0  0  0  0  0  0  0  0  0  0  0  0
   20.0689   11.6432   11.0244 O   0  0  0  0  0  0  0  0  0  0  0  0
   19.1414   12.5912   11.2406 C   0  0  0  0  0  0  0  0  0  0  0  0
   19.2824   13.7978   11.2466 O   0  0  0  0  0  0  0  0  0  0  0  0
   17.7934   11.9517   11.5756 C   0  0  0  0  0  0  0  0  0  0  0  0
   17.2539   12.3025   12.6184 O   0  0  0  0  0  0  0  0  0  0  0  0
   17.3127   11.0269   10.6649 N   0  0  0  0  0  0  0  0  0  0  0  0
   16.2279   10.1509   10.8870 C   0  0  0  0  0  0  0  0  0  0  0  0
   15.6455    9.9981   12.1316 C   0  0  0  0  0  0  0  0  0  0  0  0
   14.7728    8.9481   12.3490 C   0  0  0  0  0  0  0  0  0  0  0  0
   14.1949    8.9137   13.5481 F   0  0  0  0  0  0  0  0  0  0  0  0
   14.4668    8.0254   11.3543 C   0  0  0  0  0  0  0  0  0  0  0  0
   13.3997    6.4906   11.6469 Br  0  0  0  0  0  0  0  0  0  0  0  0
   14.9358    8.2582   10.0805 C   0  0  0  0  0  0  0  0  0  0  0  0
   15.7729    9.3444    9.8322 C   0  0  0  0  0  0  0  0  0  0  0  0
   16.2727    9.4582    8.5457 N   0  0  0  0  0  0  0  0  0  0  0  0
  1  2  1  0
  2  3  1  0
  2  4  1  0
  2  5  1  0
  5  6  1  0
  6  7  2  0
  6  8  1  0
  8  9  2  0
  8 10  1  0
 10 11  1  0
 11 12  2  0
 12 13  1  0
 13 14  1  0
 13 15  2  0
 15 16  1  0
 15 17  1  0
 17 18  2  0
 18 19  1  0
 18 11  1  0
M  END
>  <HIPPO ID>  (360) 
113937

>  <alias>  (360) 
None

>  <ref_mols>  (360) 
c0692a,c1116a

>  <submitter_email>  (360) 
None

>  <ref_pdb>  (360) 
c0270a

>  <inchikey>  (360) 
VNGHHQJXTXFIOW-UHFFFAOYSA-N

>  <generation_date>  (360) 
None

>  <original ID>  (360) 
VNGHHQJXTXFIOW-UHFFFAOYSA-N

>  <tags>  (360) 
[]

>  <exports>  (360) 
nan

>  <method>  (360) 
None

>  <submitter_name>  (360) 
None

>  <original SMILES>  (360) 
CC(C)(C)OC(=O)C(=O)Nc1cc(F)c(Br)cc1N

>  <ref_url>  (360) 
None

$$$$
LXWUOWPXBSJEKU-UHFFFAOYSA-N
     RDKit          3D

 19 19  0  0  0  0  0  0  0  0999 V2000
   22.2776   11.1322   10.3107 C   0  0  0  0  0  0  0  0  0  0  0  0
   21.4793   12.2509   10.9474 C   0  0  0  0  0  0  0  0  0  0  0  0
   21.8176   13.5791   10.2527 C   0  0  0  0  0  0  0  0  0  0  0  0
   21.8878   12.3350   12.4179 C   0  0  0  0  0  0  0  0  0  0  0  0
   20.0941   11.8261   10.8435 O   0  0  0  0  0  0  0  0  0  0  0  0
   19.1493   12.7207   11.1714 C   0  0  0  0  0  0  0  0  0  0  0  0
   19.2844   13.9225   11.3050 O   0  0  0  0  0  0  0  0  0  0  0  0
   17.8249   12.0384   11.4946 C   0  0  0  0  0  0  0  0  0  0  0  0
   17.2350   12.4406   12.4923 O   0  0  0  0  0  0  0  0  0  0  0  0
   17.4014   11.0374   10.6343 N   0  0  0  0  0  0  0  0  0  0  0  0
   16.3187   10.1700   10.8938 C   0  0  0  0  0  0  0  0  0  0  0  0
   15.8177   10.0265   12.1761 C   0  0  0  0  0  0  0  0  0  0  0  0
   14.8908    9.0399   12.4529 C   0  0  0  0  0  0  0  0  0  0  0  0
   14.2781    9.0064   14.2224 Br  0  0  0  0  0  0  0  0  0  0  0  0
   14.4527    8.1777   11.4547 C   0  0  0  0  0  0  0  0  0  0  0  0
   13.5305    7.2329   11.6899 F   0  0  0  0  0  0  0  0  0  0  0  0
   14.8910    8.3506   10.1589 C   0  0  0  0  0  0  0  0  0  0  0  0
   15.7846    9.3782    9.8651 C   0  0  0  0  0  0  0  0  0  0  0  0
   16.2360    9.4628    8.5587 N   0  0  0  0  0  0  0  0  0  0  0  0
  1  2  1  0
  2  3  1  0
  2  4  1  0
  2  5  1  0
  5  6  1  0
  6  7  2  0
  6  8  1  0
  8  9  2  0
  8 10  1  0
 10 11  1  0
 11 12  2  0
 12 13  1  0
 13 14  1  0
 13 15  2  0
 15 16  1  0
 15 17  1  0
 17 18  2  0
 18 19  1  0
 18 11  1  0
M  END
>  <HIPPO ID>  (361) 
113938

>  <alias>  (361) 
None

>  <ref_mols>  (361) 
c0692a,c1116a

>  <submitter_email>  (361) 
None

>  <ref_pdb>  (361) 
c0270a

>  <inchikey>  (361) 
LXWUOWPXBSJEKU-UHFFFAOYSA-N

>  <generation_date>  (361) 
None

>  <original ID>  (361) 
LXWUOWPXBSJEKU-UHFFFAOYSA-N

>  <tags>  (361) 
[]

>  <exports>  (361) 
nan

>  <method>  (361) 
None

>  <submitter_name>  (361) 
None

>  <original SMILES>  (361) 
CC(C)(C)OC(=O)C(=O)Nc1cc(Br)c(F)cc1N

>  <ref_url>  (361) 
None

$$$$
BXCGWFMWXNPPHY-UHFFFAOYSA-N
     RDKit          3D

 19 19  0  0  0  0  0  0  0  0999 V2000
   15.9109   10.9867   13.5096 C   0  0  0  0  0  0  0  0  0  0  0  0
   15.6796   10.1042   12.3231 C   0  0  0  0  0  0  0  0  0  0  0  0
   14.7626    9.0774   12.5216 C   0  0  0  0  0  0  0  0  0  0  0  0
   14.0786    9.0837   13.6664 F   0  0  0  0  0  0  0  0  0  0  0  0
   14.4744    8.1030   11.5768 C   0  0  0  0  0  0  0  0  0  0  0  0
   14.9991    8.2436   10.3151 C   0  0  0  0  0  0  0  0  0  0  0  0
   15.8929    9.2832   10.0535 C   0  0  0  0  0  0  0  0  0  0  0  0
   16.2411    9.4702    8.7287 N   0  0  0  0  0  0  0  0  0  0  0  0
   16.2885   10.1900   11.0682 C   0  0  0  0  0  0  0  0  0  0  0  0
   17.4081   11.0160   10.7922 N   0  0  0  0  0  0  0  0  0  0  0  0
   17.7099   12.2233   11.3907 C   0  0  0  0  0  0  0  0  0  0  0  0
   16.9143   12.9525   11.9706 O   0  0  0  0  0  0  0  0  0  0  0  0
   19.1621   12.7197   11.2631 C   0  0  0  0  0  0  0  0  0  0  0  0
   19.4692   13.8613   11.5538 O   0  0  0  0  0  0  0  0  0  0  0  0
   19.9822   11.7528   10.8226 O   0  0  0  0  0  0  0  0  0  0  0  0
   21.4108   12.0229   10.7436 C   0  0  0  0  0  0  0  0  0  0  0  0
   22.0572   11.9167   12.1179 C   0  0  0  0  0  0  0  0  0  0  0  0
   21.9470   10.8724    9.9289 C   0  0  0  0  0  0  0  0  0  0  0  0
   21.7780   13.3622   10.0828 C   0  0  0  0  0  0  0  0  0  0  0  0
  1  2  1  0
  2  3  2  0
  3  4  1  0
  3  5  1  0
  5  6  2  0
  6  7  1  0
  7  8  1  0
  7  9  2  0
  9 10  1  0
 10 11  1  0
 11 12  2  0
 11 13  1  0
 13 14  2  0
 13 15  1  0
 15 16  1  0
 16 17  1  0
 16 18  1  0
 16 19  1  0
  9  2  1  0
M  END
>  <HIPPO ID>  (362) 
113950

>  <alias>  (362) 
None

>  <ref_mols>  (362) 
c0692a,c1116a

>  <submitter_email>  (362) 
None

>  <ref_pdb>  (362) 
c0270a

>  <inchikey>  (362) 
BXCGWFMWXNPPHY-UHFFFAOYSA-N

>  <generation_date>  (362) 
None

>  <original ID>  (362) 
BXCGWFMWXNPPHY-UHFFFAOYSA-N

>  <tags>  (362) 
[]

>  <exports>  (362) 
nan

>  <method>  (362) 
None

>  <submitter_name>  (362) 
None

>  <original SMILES>  (362) 
Cc1c(F)ccc(N)c1NC(=O)C(=O)OC(C)(C)C

>  <ref_url>  (362) 
None

$$$$
BLIYUHUMADASHE-UHFFFAOYSA-N
     RDKit          3D

 19 19  0  0  0  0  0  0  0  0999 V2000
   14.3695    8.6805   13.5703 C   0  0  0  0  0  0  0  0  0  0  0  0
   14.8756    9.0261   12.2121 C   0  0  0  0  0  0  0  0  0  0  0  0
   14.4838    8.2828   11.0913 C   0  0  0  0  0  0  0  0  0  0  0  0
   13.5603    7.3159   11.2032 F   0  0  0  0  0  0  0  0  0  0  0  0
   14.9917    8.5556    9.8416 C   0  0  0  0  0  0  0  0  0  0  0  0
   15.9931    9.5062    9.7230 C   0  0  0  0  0  0  0  0  0  0  0  0
   16.3948   10.2741   10.8265 C   0  0  0  0  0  0  0  0  0  0  0  0
   17.5265   11.0937   10.6411 N   0  0  0  0  0  0  0  0  0  0  0  0
   17.8476   12.2244   11.3664 C   0  0  0  0  0  0  0  0  0  0  0  0
   17.0860   12.8544   12.0950 O   0  0  0  0  0  0  0  0  0  0  0  0
   19.2741   12.7549   11.2005 C   0  0  0  0  0  0  0  0  0  0  0  0
   19.5712   13.9026   11.4707 O   0  0  0  0  0  0  0  0  0  0  0  0
   20.0843   11.7807   10.7639 O   0  0  0  0  0  0  0  0  0  0  0  0
   21.5137   12.0108   10.7568 C   0  0  0  0  0  0  0  0  0  0  0  0
   22.0661   12.1233   12.1758 C   0  0  0  0  0  0  0  0  0  0  0  0
   22.0472   10.7374   10.1617 C   0  0  0  0  0  0  0  0  0  0  0  0
   21.9746   13.1725    9.8711 C   0  0  0  0  0  0  0  0  0  0  0  0
   15.7498   10.1116   12.0690 C   0  0  0  0  0  0  0  0  0  0  0  0
   16.1569   10.7988   13.2393 N   0  0  0  0  0  0  0  0  0  0  0  0
  1  2  1  0
  2  3  2  0
  3  4  1  0
  3  5  1  0
  5  6  2  0
  6  7  1  0
  7  8  1  0
  8  9  1  0
  9 10  2  0
  9 11  1  0
 11 12  2  0
 11 13  1  0
 13 14  1  0
 14 15  1  0
 14 16  1  0
 14 17  1  0
  7 18  2  0
 18 19  1  0
 18  2  1  0
M  END
>  <HIPPO ID>  (363) 
113963

>  <alias>  (363) 
None

>  <ref_mols>  (363) 
c0692a,c1116a

>  <submitter_email>  (363) 
None

>  <ref_pdb>  (363) 
c0270a

>  <inchikey>  (363) 
BLIYUHUMADASHE-UHFFFAOYSA-N

>  <generation_date>  (363) 
None

>  <original ID>  (363) 
BLIYUHUMADASHE-UHFFFAOYSA-N

>  <tags>  (363) 
[]

>  <exports>  (363) 
nan

>  <method>  (363) 
None

>  <submitter_name>  (363) 
None

>  <original SMILES>  (363) 
Cc1c(F)ccc(NC(=O)C(=O)OC(C)(C)C)c1N

>  <ref_url>  (363) 
None

$$$$
ZCNLQXWDUPVNOO-UHFFFAOYSA-N
     RDKit          3D

 19 19  0  0  0  0  0  0  0  0999 V2000
   22.1567   11.9485   12.1106 C   0  0  0  0  0  0  0  0  0  0  0  0
   21.5435   12.0779   10.7260 C   0  0  0  0  0  0  0  0  0  0  0  0
   21.9111   13.4214   10.0814 C   0  0  0  0  0  0  0  0  0  0  0  0
   22.0995   10.9453    9.9048 C   0  0  0  0  0  0  0  0  0  0  0  0
   20.1224   11.7961   10.7849 O   0  0  0  0  0  0  0  0  0  0  0  0
   19.2855   12.7435   11.2326 C   0  0  0  0  0  0  0  0  0  0  0  0
   19.5439   13.9024   11.4959 O   0  0  0  0  0  0  0  0  0  0  0  0
   17.8733   12.1747   11.3952 C   0  0  0  0  0  0  0  0  0  0  0  0
   17.0969   12.7739   12.1334 O   0  0  0  0  0  0  0  0  0  0  0  0
   17.5829   11.0490   10.6480 N   0  0  0  0  0  0  0  0  0  0  0  0
   16.4456   10.2339   10.7970 C   0  0  0  0  0  0  0  0  0  0  0  0
   16.0548    9.4758    9.6800 C   0  0  0  0  0  0  0  0  0  0  0  0
   15.0252    8.5452    9.7605 C   0  0  0  0  0  0  0  0  0  0  0  0
   14.4454    8.3013   10.9805 C   0  0  0  0  0  0  0  0  0  0  0  0
   13.4903    7.3660   11.0758 F   0  0  0  0  0  0  0  0  0  0  0  0
   14.8087    9.0702   12.0783 C   0  0  0  0  0  0  0  0  0  0  0  0
   14.1836    8.9332   13.2498 F   0  0  0  0  0  0  0  0  0  0  0  0
   15.7616   10.0797   12.0092 C   0  0  0  0  0  0  0  0  0  0  0  0
   16.1469   10.6864   13.2314 N   0  0  0  0  0  0  0  0  0  0  0  0
  1  2  1  0
  2  3  1  0
  2  4  1  0
  2  5  1  0
  5  6  1  0
  6  7  2  0
  6  8  1  0
  8  9  2  0
  8 10  1  0
 10 11  1  0
 11 12  2  0
 12 13  1  0
 13 14  2  0
 14 15  1  0
 14 16  1  0
 16 17  1  0
 16 18  2  0
 18 19  1  0
 18 11  1  0
M  END
>  <HIPPO ID>  (364) 
113970

>  <alias>  (364) 
None

>  <ref_mols>  (364) 
c0692a,c1116a

>  <submitter_email>  (364) 
None

>  <ref_pdb>  (364) 
c0270a

>  <inchikey>  (364) 
ZCNLQXWDUPVNOO-UHFFFAOYSA-N

>  <generation_date>  (364) 
None

>  <original ID>  (364) 
ZCNLQXWDUPVNOO-UHFFFAOYSA-N

>  <tags>  (364) 
[]

>  <exports>  (364) 
nan

>  <method>  (364) 
None

>  <submitter_name>  (364) 
None

>  <original SMILES>  (364) 
CC(C)(C)OC(=O)C(=O)Nc1ccc(F)c(F)c1N

>  <ref_url>  (364) 
None

$$$$
OKSWFOALFLOPMV-UHFFFAOYSA-N
     RDKit          3D

 19 19  0  0  0  0  0  0  0  0999 V2000
   21.6879   13.6819   10.2367 C   0  0  0  0  0  0  0  0  0  0  0  0
   21.4049   12.3034   10.8561 C   0  0  0  0  0  0  0  0  0  0  0  0
   21.8961   12.2720   12.3051 C   0  0  0  0  0  0  0  0  0  0  0  0
   22.1887   11.2557   10.0895 C   0  0  0  0  0  0  0  0  0  0  0  0
   20.0065   11.8923   10.7786 O   0  0  0  0  0  0  0  0  0  0  0  0
   19.0963   12.7528   11.2696 C   0  0  0  0  0  0  0  0  0  0  0  0
   19.3116   13.8873   11.6613 O   0  0  0  0  0  0  0  0  0  0  0  0
   17.6696   12.1871   11.3193 C   0  0  0  0  0  0  0  0  0  0  0  0
   16.7942   12.9098   11.7845 O   0  0  0  0  0  0  0  0  0  0  0  0
   17.4447   10.9456   10.7593 N   0  0  0  0  0  0  0  0  0  0  0  0
   16.2874   10.1588   11.0011 C   0  0  0  0  0  0  0  0  0  0  0  0
   15.8030    9.3606    9.9397 C   0  0  0  0  0  0  0  0  0  0  0  0
   16.2549    9.4985    8.6371 N   0  0  0  0  0  0  0  0  0  0  0  0
   14.9359    8.2938   10.1775 C   0  0  0  0  0  0  0  0  0  0  0  0
   14.4413    8.0856   11.4432 C   0  0  0  0  0  0  0  0  0  0  0  0
   14.7580    9.0046   12.4327 C   0  0  0  0  0  0  0  0  0  0  0  0
   14.1129    8.9361   13.5976 F   0  0  0  0  0  0  0  0  0  0  0  0
   15.6789   10.0265   12.2517 C   0  0  0  0  0  0  0  0  0  0  0  0
   16.0782   10.9856   13.8426 Br  0  0  0  0  0  0  0  0  0  0  0  0
  1  2  1  0
  2  3  1  0
  2  4  1  0
  2  5  1  0
  5  6  1  0
  6  7  2  0
  6  8  1  0
  8  9  2  0
  8 10  1  0
 10 11  1  0
 11 12  2  0
 12 13  1  0
 12 14  1  0
 14 15  2  0
 15 16  1  0
 16 17  1  0
 16 18  2  0
 18 19  1  0
 18 11  1  0
M  END
>  <HIPPO ID>  (365) 
113976

>  <alias>  (365) 
None

>  <ref_mols>  (365) 
c0692a,c1116a

>  <submitter_email>  (365) 
None

>  <ref_pdb>  (365) 
c0270a

>  <inchikey>  (365) 
OKSWFOALFLOPMV-UHFFFAOYSA-N

>  <generation_date>  (365) 
None

>  <original ID>  (365) 
OKSWFOALFLOPMV-UHFFFAOYSA-N

>  <tags>  (365) 
[]

>  <exports>  (365) 
nan

>  <method>  (365) 
None

>  <submitter_name>  (365) 
None

>  <original SMILES>  (365) 
CC(C)(C)OC(=O)C(=O)Nc1c(N)ccc(F)c1Br

>  <ref_url>  (365) 
None

$$$$
ZKDDGRUWMJBWGC-UHFFFAOYSA-N
     RDKit          3D

 19 19  0  0  0  0  0  0  0  0999 V2000
   22.2998   11.3242   10.0841 C   0  0  0  0  0  0  0  0  0  0  0  0
   21.4740   12.3415   10.8434 C   0  0  0  0  0  0  0  0  0  0  0  0
   21.7460   13.7268   10.2370 C   0  0  0  0  0  0  0  0  0  0  0  0
   21.9184   12.3157   12.3069 C   0  0  0  0  0  0  0  0  0  0  0  0
   20.0956   11.8805   10.7558 O   0  0  0  0  0  0  0  0  0  0  0  0
   19.1431   12.7309   11.1712 C   0  0  0  0  0  0  0  0  0  0  0  0
   19.2563   13.9284   11.3597 O   0  0  0  0  0  0  0  0  0  0  0  0
   17.8366   12.0199   11.5049 C   0  0  0  0  0  0  0  0  0  0  0  0
   17.2527   12.4048   12.5130 O   0  0  0  0  0  0  0  0  0  0  0  0
   17.4114   11.0240   10.6404 N   0  0  0  0  0  0  0  0  0  0  0  0
   16.3239   10.1601   10.8961 C   0  0  0  0  0  0  0  0  0  0  0  0
   15.8084   10.0212   12.1740 C   0  0  0  0  0  0  0  0  0  0  0  0
   14.8712    9.0426   12.4413 C   0  0  0  0  0  0  0  0  0  0  0  0
   14.2707    9.0211   14.0382 Cl  0  0  0  0  0  0  0  0  0  0  0  0
   14.4439    8.1769   11.4400 C   0  0  0  0  0  0  0  0  0  0  0  0
   13.5175    7.2344   11.6681 F   0  0  0  0  0  0  0  0  0  0  0  0
   14.8946    8.3461   10.1487 C   0  0  0  0  0  0  0  0  0  0  0  0
   15.7927    9.3714    9.8630 C   0  0  0  0  0  0  0  0  0  0  0  0
   16.2484    9.4593    8.5584 N   0  0  0  0  0  0  0  0  0  0  0  0
  1  2  1  0
  2  3  1  0
  2  4  1  0
  2  5  1  0
  5  6  1  0
  6  7  2  0
  6  8  1  0
  8  9  2  0
  8 10  1  0
 10 11  1  0
 11 12  2  0
 12 13  1  0
 13 14  1  0
 13 15  2  0
 15 16  1  0
 15 17  1  0
 17 18  2  0
 18 19  1  0
 18 11  1  0
M  END
>  <HIPPO ID>  (366) 
113979

>  <alias>  (366) 
None

>  <ref_mols>  (366) 
c0692a,c1116a

>  <submitter_email>  (366) 
None

>  <ref_pdb>  (366) 
c0270a

>  <inchikey>  (366) 
ZKDDGRUWMJBWGC-UHFFFAOYSA-N

>  <generation_date>  (366) 
None

>  <original ID>  (366) 
ZKDDGRUWMJBWGC-UHFFFAOYSA-N

>  <tags>  (366) 
[]

>  <exports>  (366) 
nan

>  <method>  (366) 
None

>  <submitter_name>  (366) 
None

>  <original SMILES>  (366) 
CC(C)(C)OC(=O)C(=O)Nc1cc(Cl)c(F)cc1N

>  <ref_url>  (366) 
None

$$$$
FQGFXPTZQPXFRS-UHFFFAOYSA-N
     RDKit          3D

 19 19  0  0  0  0  0  0  0  0999 V2000
   22.2553   11.3213   10.1046 C   0  0  0  0  0  0  0  0  0  0  0  0
   21.4204   12.3233   10.8758 C   0  0  0  0  0  0  0  0  0  0  0  0
   21.6783   13.7179   10.2861 C   0  0  0  0  0  0  0  0  0  0  0  0
   21.8753   12.2861   12.3358 C   0  0  0  0  0  0  0  0  0  0  0  0
   20.0428   11.8526   10.7907 O   0  0  0  0  0  0  0  0  0  0  0  0
   19.0810   12.6920   11.2107 C   0  0  0  0  0  0  0  0  0  0  0  0
   19.1810   13.8910   11.3976 O   0  0  0  0  0  0  0  0  0  0  0  0
   17.7805   11.9671   11.5543 C   0  0  0  0  0  0  0  0  0  0  0  0
   17.2310   12.3007   12.5989 O   0  0  0  0  0  0  0  0  0  0  0  0
   17.3235   11.0195   10.6546 N   0  0  0  0  0  0  0  0  0  0  0  0
   16.2506   10.1289   10.8930 C   0  0  0  0  0  0  0  0  0  0  0  0
   15.7280    9.9333   12.1597 C   0  0  0  0  0  0  0  0  0  0  0  0
   14.8642    8.8728   12.4134 C   0  0  0  0  0  0  0  0  0  0  0  0
   14.3083    8.8065   14.0293 Cl  0  0  0  0  0  0  0  0  0  0  0  0
   14.5015    7.9879   11.3979 C   0  0  0  0  0  0  0  0  0  0  0  0
   13.3635    6.2424   11.6467 I   0  0  0  0  0  0  0  0  0  0  0  0
   14.9154    8.2661   10.1053 C   0  0  0  0  0  0  0  0  0  0  0  0
   15.7492    9.3531    9.8427 C   0  0  0  0  0  0  0  0  0  0  0  0
   16.2076    9.4867    8.5429 N   0  0  0  0  0  0  0  0  0  0  0  0
  1  2  1  0
  2  3  1  0
  2  4  1  0
  2  5  1  0
  5  6  1  0
  6  7  2  0
  6  8  1  0
  8  9  2  0
  8 10  1  0
 10 11  1  0
 11 12  2  0
 12 13  1  0
 13 14  1  0
 13 15  2  0
 15 16  1  0
 15 17  1  0
 17 18  2  0
 18 19  1  0
 18 11  1  0
M  END
>  <HIPPO ID>  (367) 
113980

>  <alias>  (367) 
None

>  <ref_mols>  (367) 
c0692a,c1116a

>  <submitter_email>  (367) 
None

>  <ref_pdb>  (367) 
c0270a

>  <inchikey>  (367) 
FQGFXPTZQPXFRS-UHFFFAOYSA-N

>  <generation_date>  (367) 
None

>  <original ID>  (367) 
FQGFXPTZQPXFRS-UHFFFAOYSA-N

>  <tags>  (367) 
[]

>  <exports>  (367) 
nan

>  <method>  (367) 
None

>  <submitter_name>  (367) 
None

>  <original SMILES>  (367) 
CC(C)(C)OC(=O)C(=O)Nc1cc(Cl)c(I)cc1N

>  <ref_url>  (367) 
None

$$$$
WAIUTZGCGQYOEQ-UHFFFAOYSA-N
     RDKit          3D

 19 19  0  0  0  0  0  0  0  0999 V2000
   22.4018   11.2372   12.0011 C   0  0  0  0  0  0  0  0  0  0  0  0
   21.6257   12.2700   11.2036 C   0  0  0  0  0  0  0  0  0  0  0  0
   22.2596   12.4133    9.8272 C   0  0  0  0  0  0  0  0  0  0  0  0
   21.7483   13.5983   11.9623 C   0  0  0  0  0  0  0  0  0  0  0  0
   20.2746   11.7305   11.1382 O   0  0  0  0  0  0  0  0  0  0  0  0
   19.2592   12.5914   10.9907 C   0  0  0  0  0  0  0  0  0  0  0  0
   19.3326   13.7515   10.6364 O   0  0  0  0  0  0  0  0  0  0  0  0
   17.9316   11.9644   11.4311 C   0  0  0  0  0  0  0  0  0  0  0  0
   17.4276   12.3762   12.4690 O   0  0  0  0  0  0  0  0  0  0  0  0
   17.4110   11.0055   10.5825 N   0  0  0  0  0  0  0  0  0  0  0  0
   16.2976   10.1805   10.8494 C   0  0  0  0  0  0  0  0  0  0  0  0
   15.7199   10.0899   12.1008 C   0  0  0  0  0  0  0  0  0  0  0  0
   14.8164    9.0727   12.3525 C   0  0  0  0  0  0  0  0  0  0  0  0
   14.2289    9.0977   13.5477 F   0  0  0  0  0  0  0  0  0  0  0  0
   14.4940    8.1164   11.3917 C   0  0  0  0  0  0  0  0  0  0  0  0
   13.5055    6.7442   11.7148 Cl  0  0  0  0  0  0  0  0  0  0  0  0
   14.9541    8.2965   10.1074 C   0  0  0  0  0  0  0  0  0  0  0  0
   15.8018    9.3622    9.8211 C   0  0  0  0  0  0  0  0  0  0  0  0
   16.2696    9.4523    8.5212 N   0  0  0  0  0  0  0  0  0  0  0  0
  1  2  1  0
  2  3  1  0
  2  4  1  0
  2  5  1  0
  5  6  1  0
  6  7  2  0
  6  8  1  0
  8  9  2  0
  8 10  1  0
 10 11  1  0
 11 12  2  0
 12 13  1  0
 13 14  1  0
 13 15  2  0
 15 16  1  0
 15 17  1  0
 17 18  2  0
 18 19  1  0
 18 11  1  0
M  END
>  <HIPPO ID>  (368) 
113981

>  <alias>  (368) 
None

>  <ref_mols>  (368) 
c0692a,c1116a

>  <submitter_email>  (368) 
None

>  <ref_pdb>  (368) 
c0270a

>  <inchikey>  (368) 
WAIUTZGCGQYOEQ-UHFFFAOYSA-N

>  <generation_date>  (368) 
None

>  <original ID>  (368) 
WAIUTZGCGQYOEQ-UHFFFAOYSA-N

>  <tags>  (368) 
[]

>  <exports>  (368) 
nan

>  <method>  (368) 
None

>  <submitter_name>  (368) 
None

>  <original SMILES>  (368) 
CC(C)(C)OC(=O)C(=O)Nc1cc(F)c(Cl)cc1N

>  <ref_url>  (368) 
None

$$$$
SEFCTTIBCXHAME-UHFFFAOYSA-N
     RDKit          3D

 19 19  0  0  0  0  0  0  0  0999 V2000
   22.1487   10.9446   10.1295 C   0  0  0  0  0  0  0  0  0  0  0  0
   21.5079   11.9952   11.0050 C   0  0  0  0  0  0  0  0  0  0  0  0
   21.8808   13.3816   10.4848 C   0  0  0  0  0  0  0  0  0  0  0  0
   22.0786   11.8408   12.4096 C   0  0  0  0  0  0  0  0  0  0  0  0
   20.0935   11.6546   11.0043 O   0  0  0  0  0  0  0  0  0  0  0  0
   19.1660   12.6056   11.2000 C   0  0  0  0  0  0  0  0  0  0  0  0
   19.3096   13.8119   11.1985 O   0  0  0  0  0  0  0  0  0  0  0  0
   17.8153   11.9740   11.5268 C   0  0  0  0  0  0  0  0  0  0  0  0
   17.2568   12.3596   12.5478 O   0  0  0  0  0  0  0  0  0  0  0  0
   17.3460   11.0228   10.6351 N   0  0  0  0  0  0  0  0  0  0  0  0
   16.2685   10.1446   10.8810 C   0  0  0  0  0  0  0  0  0  0  0  0
   15.7696    9.9578   12.1571 C   0  0  0  0  0  0  0  0  0  0  0  0
   14.9047    8.9031   12.4329 C   0  0  0  0  0  0  0  0  0  0  0  0
   14.3589    8.8118   14.4146 I   0  0  0  0  0  0  0  0  0  0  0  0
   14.4990    8.0348   11.4196 C   0  0  0  0  0  0  0  0  0  0  0  0
   13.4897    6.6527   11.6507 Cl  0  0  0  0  0  0  0  0  0  0  0  0
   14.9049    8.2934   10.1212 C   0  0  0  0  0  0  0  0  0  0  0  0
   15.7560    9.3612    9.8419 C   0  0  0  0  0  0  0  0  0  0  0  0
   16.2184    9.4699    8.5407 N   0  0  0  0  0  0  0  0  0  0  0  0
  1  2  1  0
  2  3  1  0
  2  4  1  0
  2  5  1  0
  5  6  1  0
  6  7  2  0
  6  8  1  0
  8  9  2  0
  8 10  1  0
 10 11  1  0
 11 12  2  0
 12 13  1  0
 13 14  1  0
 13 15  2  0
 15 16  1  0
 15 17  1  0
 17 18  2  0
 18 19  1  0
 18 11  1  0
M  END
>  <HIPPO ID>  (369) 
113982

>  <alias>  (369) 
None

>  <ref_mols>  (369) 
c0692a,c1116a

>  <submitter_email>  (369) 
None

>  <ref_pdb>  (369) 
c0270a

>  <inchikey>  (369) 
SEFCTTIBCXHAME-UHFFFAOYSA-N

>  <generation_date>  (369) 
None

>  <original ID>  (369) 
SEFCTTIBCXHAME-UHFFFAOYSA-N

>  <tags>  (369) 
[]

>  <exports>  (369) 
nan

>  <method>  (369) 
None

>  <submitter_name>  (369) 
None

>  <original SMILES>  (369) 
CC(C)(C)OC(=O)C(=O)Nc1cc(I)c(Cl)cc1N

>  <ref_url>  (369) 
None

$$$$
XBJGWDJVADAIPI-UHFFFAOYSA-N
     RDKit          3D

 19 19  0  0  0  0  0  0  0  0999 V2000
   14.1946    8.9808   14.0675 C   0  0  0  0  0  0  0  0  0  0  0  0
   14.8198    9.0856   12.7159 C   0  0  0  0  0  0  0  0  0  0  0  0
   14.5135    8.1231   11.7481 C   0  0  0  0  0  0  0  0  0  0  0  0
   14.9738    8.2761   10.4588 C   0  0  0  0  0  0  0  0  0  0  0  0
   15.8121    9.3425   10.1430 C   0  0  0  0  0  0  0  0  0  0  0  0
   16.3314    9.3747    8.8599 N   0  0  0  0  0  0  0  0  0  0  0  0
   16.2699   10.2179   11.1487 C   0  0  0  0  0  0  0  0  0  0  0  0
   17.3987   11.0150   10.8263 N   0  0  0  0  0  0  0  0  0  0  0  0
   17.7076   12.2480   11.3620 C   0  0  0  0  0  0  0  0  0  0  0  0
   16.9061   13.0146   11.8864 O   0  0  0  0  0  0  0  0  0  0  0  0
   19.1663   12.7242   11.2468 C   0  0  0  0  0  0  0  0  0  0  0  0
   19.4810   13.8627   11.5452 O   0  0  0  0  0  0  0  0  0  0  0  0
   19.9838   11.7546   10.8116 O   0  0  0  0  0  0  0  0  0  0  0  0
   21.4131   12.0203   10.7390 C   0  0  0  0  0  0  0  0  0  0  0  0
   21.7881   13.3581   10.0788 C   0  0  0  0  0  0  0  0  0  0  0  0
   22.0539   11.9134   12.1159 C   0  0  0  0  0  0  0  0  0  0  0  0
   21.9494   10.8682    9.9274 C   0  0  0  0  0  0  0  0  0  0  0  0
   15.7178   10.1350   12.4398 C   0  0  0  0  0  0  0  0  0  0  0  0
   16.0516   11.0753   13.5634 C   0  0  0  0  0  0  0  0  0  0  0  0
  1  2  1  0
  2  3  2  0
  3  4  1  0
  4  5  2  0
  5  6  1  0
  5  7  1  0
  7  8  1  0
  8  9  1  0
  9 10  2  0
  9 11  1  0
 11 12  2  0
 11 13  1  0
 13 14  1  0
 14 15  1  0
 14 16  1  0
 14 17  1  0
  7 18  2  0
 18 19  1  0
 18  2  1  0
M  END
>  <HIPPO ID>  (370) 
113990

>  <alias>  (370) 
None

>  <ref_mols>  (370) 
c0692a,c1116a

>  <submitter_email>  (370) 
None

>  <ref_pdb>  (370) 
c0270a

>  <inchikey>  (370) 
XBJGWDJVADAIPI-UHFFFAOYSA-N

>  <generation_date>  (370) 
None

>  <original ID>  (370) 
XBJGWDJVADAIPI-UHFFFAOYSA-N

>  <tags>  (370) 
[]

>  <exports>  (370) 
nan

>  <method>  (370) 
None

>  <submitter_name>  (370) 
None

>  <original SMILES>  (370) 
Cc1ccc(N)c(NC(=O)C(=O)OC(C)(C)C)c1C

>  <ref_url>  (370) 
None

$$$$
KWHAMSQYELGVMS-UHFFFAOYSA-N
     RDKit          3D

 19 19  0  0  0  0  0  0  0  0999 V2000
   21.8521   13.5047   10.2724 C   0  0  0  0  0  0  0  0  0  0  0  0
   21.4963   12.1311   10.8614 C   0  0  0  0  0  0  0  0  0  0  0  0
   22.0364   12.0117   12.2850 C   0  0  0  0  0  0  0  0  0  0  0  0
   22.1561   11.0478   10.0356 C   0  0  0  0  0  0  0  0  0  0  0  0
   20.0782   11.8056   10.8337 O   0  0  0  0  0  0  0  0  0  0  0  0
   19.2022   12.7351   11.2495 C   0  0  0  0  0  0  0  0  0  0  0  0
   19.4317   13.9005   11.5173 O   0  0  0  0  0  0  0  0  0  0  0  0
   17.7887   12.1654   11.3973 C   0  0  0  0  0  0  0  0  0  0  0  0
   17.0140   12.7612   12.1419 O   0  0  0  0  0  0  0  0  0  0  0  0
   17.4763   11.0609   10.6305 N   0  0  0  0  0  0  0  0  0  0  0  0
   16.3566   10.2195   10.8061 C   0  0  0  0  0  0  0  0  0  0  0  0
   15.9428    9.4853    9.6911 C   0  0  0  0  0  0  0  0  0  0  0  0
   15.0029    8.4679    9.8071 C   0  0  0  0  0  0  0  0  0  0  0  0
   14.5559    8.0818   11.0598 C   0  0  0  0  0  0  0  0  0  0  0  0
   13.4437    6.2965   11.1360 I   0  0  0  0  0  0  0  0  0  0  0  0
   14.9108    8.8558   12.1709 C   0  0  0  0  0  0  0  0  0  0  0  0
   14.3502    8.5186   13.7658 Cl  0  0  0  0  0  0  0  0  0  0  0  0
   15.7436    9.9878   12.0491 C   0  0  0  0  0  0  0  0  0  0  0  0
   16.1546   10.6585   13.2344 N   0  0  0  0  0  0  0  0  0  0  0  0
  1  2  1  0
  2  3  1  0
  2  4  1  0
  2  5  1  0
  5  6  1  0
  6  7  2  0
  6  8  1  0
  8  9  2  0
  8 10  1  0
 10 11  1  0
 11 12  2  0
 12 13  1  0
 13 14  2  0
 14 15  1  0
 14 16  1  0
 16 17  1  0
 16 18  2  0
 18 19  1  0
 18 11  1  0
M  END
>  <HIPPO ID>  (371) 
114008

>  <alias>  (371) 
None

>  <ref_mols>  (371) 
c0692a,c1116a

>  <submitter_email>  (371) 
None

>  <ref_pdb>  (371) 
c0270a

>  <inchikey>  (371) 
KWHAMSQYELGVMS-UHFFFAOYSA-N

>  <generation_date>  (371) 
None

>  <original ID>  (371) 
KWHAMSQYELGVMS-UHFFFAOYSA-N

>  <tags>  (371) 
[]

>  <exports>  (371) 
nan

>  <method>  (371) 
None

>  <submitter_name>  (371) 
None

>  <original SMILES>  (371) 
CC(C)(C)OC(=O)C(=O)Nc1ccc(I)c(Cl)c1N

>  <ref_url>  (371) 
None

$$$$
XFUUNKMQKYZZON-UHFFFAOYSA-N
     RDKit          3D

 19 19  0  0  0  0  0  0  0  0999 V2000
   22.0630   11.9529   12.2317 C   0  0  0  0  0  0  0  0  0  0  0  0
   21.4528   11.9802   10.8334 C   0  0  0  0  0  0  0  0  0  0  0  0
   22.0232   10.8153   10.0680 C   0  0  0  0  0  0  0  0  0  0  0  0
   21.8222   13.2813   10.1176 C   0  0  0  0  0  0  0  0  0  0  0  0
   20.0326   11.6806   10.8978 O   0  0  0  0  0  0  0  0  0  0  0  0
   19.1648   12.6488   11.2279 C   0  0  0  0  0  0  0  0  0  0  0  0
   19.3784   13.8397   11.3402 O   0  0  0  0  0  0  0  0  0  0  0  0
   17.7927   12.0396   11.5291 C   0  0  0  0  0  0  0  0  0  0  0  0
   17.1994   12.4571   12.5169 O   0  0  0  0  0  0  0  0  0  0  0  0
   17.3430   11.0645   10.6502 N   0  0  0  0  0  0  0  0  0  0  0  0
   16.2650   10.1870   10.8965 C   0  0  0  0  0  0  0  0  0  0  0  0
   15.7517   10.0216   12.1698 C   0  0  0  0  0  0  0  0  0  0  0  0
   14.8856    8.9714   12.4457 C   0  0  0  0  0  0  0  0  0  0  0  0
   14.3037    8.9256   14.2308 Br  0  0  0  0  0  0  0  0  0  0  0  0
   14.5073    8.0737   11.4473 C   0  0  0  0  0  0  0  0  0  0  0  0
   13.5102    6.6890   11.7058 Cl  0  0  0  0  0  0  0  0  0  0  0  0
   14.9251    8.3102   10.1498 C   0  0  0  0  0  0  0  0  0  0  0  0
   15.7634    9.3860    9.8626 C   0  0  0  0  0  0  0  0  0  0  0  0
   16.2171    9.4913    8.5581 N   0  0  0  0  0  0  0  0  0  0  0  0
  1  2  1  0
  2  3  1  0
  2  4  1  0
  2  5  1  0
  5  6  1  0
  6  7  2  0
  6  8  1  0
  8  9  2  0
  8 10  1  0
 10 11  1  0
 11 12  2  0
 12 13  1  0
 13 14  1  0
 13 15  2  0
 15 16  1  0
 15 17  1  0
 17 18  2  0
 18 19  1  0
 18 11  1  0
M  END
>  <HIPPO ID>  (372) 
114024

>  <alias>  (372) 
None

>  <ref_mols>  (372) 
c0692a,c1116a

>  <submitter_email>  (372) 
None

>  <ref_pdb>  (372) 
c0270a

>  <inchikey>  (372) 
XFUUNKMQKYZZON-UHFFFAOYSA-N

>  <generation_date>  (372) 
None

>  <original ID>  (372) 
XFUUNKMQKYZZON-UHFFFAOYSA-N

>  <tags>  (372) 
[]

>  <exports>  (372) 
nan

>  <method>  (372) 
None

>  <submitter_name>  (372) 
None

>  <original SMILES>  (372) 
CC(C)(C)OC(=O)C(=O)Nc1cc(Br)c(Cl)cc1N

>  <ref_url>  (372) 
None

$$$$
YGWBMJPIWVPWGL-UHFFFAOYSA-N
     RDKit          3D

 19 19  0  0  0  0  0  0  0  0999 V2000
   21.7955   13.4783   10.2974 C   0  0  0  0  0  0  0  0  0  0  0  0
   21.4633   12.0916   10.8679 C   0  0  0  0  0  0  0  0  0  0  0  0
   22.1210   11.0245   10.0212 C   0  0  0  0  0  0  0  0  0  0  0  0
   22.0316   11.9676   12.2796 C   0  0  0  0  0  0  0  0  0  0  0  0
   20.0523   11.7295   10.8771 O   0  0  0  0  0  0  0  0  0  0  0  0
   19.1391   12.6515   11.2212 C   0  0  0  0  0  0  0  0  0  0  0  0
   19.2979   13.8514   11.3398 O   0  0  0  0  0  0  0  0  0  0  0  0
   17.7966   11.9957   11.5478 C   0  0  0  0  0  0  0  0  0  0  0  0
   17.2332   12.3709   12.5698 O   0  0  0  0  0  0  0  0  0  0  0  0
   17.3365   11.0394   10.6566 N   0  0  0  0  0  0  0  0  0  0  0  0
   16.2594   10.1574   10.8976 C   0  0  0  0  0  0  0  0  0  0  0  0
   15.7297    9.9865   12.1645 C   0  0  0  0  0  0  0  0  0  0  0  0
   14.8635    8.9329   12.4275 C   0  0  0  0  0  0  0  0  0  0  0  0
   14.2981    8.8794   14.0401 Cl  0  0  0  0  0  0  0  0  0  0  0  0
   14.5030    8.0347   11.4229 C   0  0  0  0  0  0  0  0  0  0  0  0
   13.4313    6.4895   11.6842 Br  0  0  0  0  0  0  0  0  0  0  0  0
   14.9309    8.2807   10.1302 C   0  0  0  0  0  0  0  0  0  0  0  0
   15.7694    9.3599    9.8559 C   0  0  0  0  0  0  0  0  0  0  0  0
   16.2387    9.4690    8.5572 N   0  0  0  0  0  0  0  0  0  0  0  0
  1  2  1  0
  2  3  1  0
  2  4  1  0
  2  5  1  0
  5  6  1  0
  6  7  2  0
  6  8  1  0
  8  9  2  0
  8 10  1  0
 10 11  1  0
 11 12  2  0
 12 13  1  0
 13 14  1  0
 13 15  2  0
 15 16  1  0
 15 17  1  0
 17 18  2  0
 18 19  1  0
 18 11  1  0
M  END
>  <HIPPO ID>  (373) 
114025

>  <alias>  (373) 
None

>  <ref_mols>  (373) 
c0692a,c1116a

>  <submitter_email>  (373) 
None

>  <ref_pdb>  (373) 
c0270a

>  <inchikey>  (373) 
YGWBMJPIWVPWGL-UHFFFAOYSA-N

>  <generation_date>  (373) 
None

>  <original ID>  (373) 
YGWBMJPIWVPWGL-UHFFFAOYSA-N

>  <tags>  (373) 
[]

>  <exports>  (373) 
nan

>  <method>  (373) 
None

>  <submitter_name>  (373) 
None

>  <original SMILES>  (373) 
CC(C)(C)OC(=O)C(=O)Nc1cc(Cl)c(Br)cc1N

>  <ref_url>  (373) 
None

$$$$
BQQVLGKBAFZSLM-UHFFFAOYSA-N
     RDKit          3D

 19 19  0  0  0  0  0  0  0  0999 V2000
   14.8107    9.8985    8.5693 C   0  0  0  0  0  0  0  0  0  0  0  0
   16.0686    9.2684    8.9283 N   0  0  0  0  0  0  0  0  0  0  0  0
   15.9999    9.0887   10.3245 C   0  0  0  0  0  0  0  0  0  0  0  0
   15.1384    8.0740   10.7798 C   0  0  0  0  0  0  0  0  0  0  0  0
   14.6628    8.1024   12.0760 C   0  0  0  0  0  0  0  0  0  0  0  0
   15.0097    9.1799   12.8768 C   0  0  0  0  0  0  0  0  0  0  0  0
   14.2346    9.4565   14.5502 Br  0  0  0  0  0  0  0  0  0  0  0  0
   15.9133   10.1441   12.4638 C   0  0  0  0  0  0  0  0  0  0  0  0
   16.4548   10.0939   11.1921 C   0  0  0  0  0  0  0  0  0  0  0  0
   17.4683   10.9915   10.7830 N   0  0  0  0  0  0  0  0  0  0  0  0
   17.8069   12.1348   11.4862 C   0  0  0  0  0  0  0  0  0  0  0  0
   17.1132   12.6861   12.3353 O   0  0  0  0  0  0  0  0  0  0  0  0
   19.1538   12.7862   11.1787 C   0  0  0  0  0  0  0  0  0  0  0  0
   19.3169   13.9771   11.3772 O   0  0  0  0  0  0  0  0  0  0  0  0
   20.0790   11.9046   10.7666 O   0  0  0  0  0  0  0  0  0  0  0  0
   21.4695   12.3330   10.8343 C   0  0  0  0  0  0  0  0  0  0  0  0
   22.2599   11.2770   10.0910 C   0  0  0  0  0  0  0  0  0  0  0  0
   21.9282   12.3294   12.2937 C   0  0  0  0  0  0  0  0  0  0  0  0
   21.7692   13.6992   10.1959 C   0  0  0  0  0  0  0  0  0  0  0  0
  1  2  1  0
  2  3  1  0
  3  4  2  0
  4  5  1  0
  5  6  2  0
  6  7  1  0
  6  8  1  0
  8  9  2  0
  9 10  1  0
 10 11  1  0
 11 12  2  0
 11 13  1  0
 13 14  2  0
 13 15  1  0
 15 16  1  0
 16 17  1  0
 16 18  1  0
 16 19  1  0
  9  3  1  0
M  END
>  <HIPPO ID>  (374) 
114058

>  <alias>  (374) 
None

>  <ref_mols>  (374) 
c0692a,c1116a

>  <submitter_email>  (374) 
None

>  <ref_pdb>  (374) 
c0270a

>  <inchikey>  (374) 
BQQVLGKBAFZSLM-UHFFFAOYSA-N

>  <generation_date>  (374) 
None

>  <original ID>  (374) 
BQQVLGKBAFZSLM-UHFFFAOYSA-N

>  <tags>  (374) 
[]

>  <exports>  (374) 
nan

>  <method>  (374) 
None

>  <submitter_name>  (374) 
None

>  <original SMILES>  (374) 
CNc1ccc(Br)cc1NC(=O)C(=O)OC(C)(C)C

>  <ref_url>  (374) 
None

$$$$
MVQQQLKSXDHZNX-UHFFFAOYSA-N
     RDKit          3D

 19 19  0  0  0  0  0  0  0  0999 V2000
   21.7265   13.5412    9.7636 C   0  0  0  0  0  0  0  0  0  0  0  0
   21.4437   12.3143   10.6513 C   0  0  0  0  0  0  0  0  0  0  0  0
   21.9420   12.5801   12.0693 C   0  0  0  0  0  0  0  0  0  0  0  0
   22.1891   11.1137   10.1012 C   0  0  0  0  0  0  0  0  0  0  0  0
   20.0538   11.8800   10.6776 O   0  0  0  0  0  0  0  0  0  0  0  0
   19.1456   12.7450   11.1567 C   0  0  0  0  0  0  0  0  0  0  0  0
   19.3030   13.9353   11.3568 O   0  0  0  0  0  0  0  0  0  0  0  0
   17.8353   12.0411   11.5171 C   0  0  0  0  0  0  0  0  0  0  0  0
   17.2735   12.4134   12.5410 O   0  0  0  0  0  0  0  0  0  0  0  0
   17.3957   11.0544   10.6484 N   0  0  0  0  0  0  0  0  0  0  0  0
   16.3037   10.1923   10.8882 C   0  0  0  0  0  0  0  0  0  0  0  0
   15.7185   10.0921   12.1374 C   0  0  0  0  0  0  0  0  0  0  0  0
   14.7767    9.1136   12.3637 C   0  0  0  0  0  0  0  0  0  0  0  0
   14.1614    9.1471   13.5442 F   0  0  0  0  0  0  0  0  0  0  0  0
   14.4210    8.1989   11.3803 C   0  0  0  0  0  0  0  0  0  0  0  0
   13.4934    7.2576   11.6031 F   0  0  0  0  0  0  0  0  0  0  0  0
   14.9292    8.3378   10.1131 C   0  0  0  0  0  0  0  0  0  0  0  0
   15.8234    9.3715    9.8498 C   0  0  0  0  0  0  0  0  0  0  0  0
   16.3122    9.4493    8.5566 N   0  0  0  0  0  0  0  0  0  0  0  0
  1  2  1  0
  2  3  1  0
  2  4  1  0
  2  5  1  0
  5  6  1  0
  6  7  2  0
  6  8  1  0
  8  9  2  0
  8 10  1  0
 10 11  1  0
 11 12  2  0
 12 13  1  0
 13 14  1  0
 13 15  2  0
 15 16  1  0
 15 17  1  0
 17 18  2  0
 18 19  1  0
 18 11  1  0
M  END
>  <HIPPO ID>  (375) 
114102

>  <alias>  (375) 
None

>  <ref_mols>  (375) 
c0692a,c1116a

>  <submitter_email>  (375) 
None

>  <ref_pdb>  (375) 
c0270a

>  <inchikey>  (375) 
MVQQQLKSXDHZNX-UHFFFAOYSA-N

>  <generation_date>  (375) 
None

>  <original ID>  (375) 
MVQQQLKSXDHZNX-UHFFFAOYSA-N

>  <tags>  (375) 
[]

>  <exports>  (375) 
nan

>  <method>  (375) 
None

>  <submitter_name>  (375) 
None

>  <original SMILES>  (375) 
CC(C)(C)OC(=O)C(=O)Nc1cc(F)c(F)cc1N

>  <ref_url>  (375) 
None

$$$$
RWEOUODOERYMKO-LBPRGKRZSA-N
     RDKit          3D

 19 20  0  0  0  0  0  0  0  0999 V2000
   21.9955   11.6106   10.4511 N   0  0  0  0  0  0  0  0  0  0  0  0
   20.5856   11.3022   10.6717 C   0  0  0  0  0  0  0  0  0  0  0  0
   19.7698   12.4880   11.2171 C   0  0  2  0  0  0  0  0  0  0  0  0
   18.2158   12.2140   11.2800 C   0  0  0  0  0  0  0  0  0  0  0  0
   17.4795   12.9682   11.9281 O   0  0  0  0  0  0  0  0  0  0  0  0
   17.7033   11.1089   10.6122 N   0  0  0  0  0  0  0  0  0  0  0  0
   16.5033   10.4256   10.9413 C   0  0  0  0  0  0  0  0  0  0  0  0
   15.9267   10.5441   12.1921 C   0  0  0  0  0  0  0  0  0  0  0  0
   14.9624    9.6274   12.5835 C   0  0  0  0  0  0  0  0  0  0  0  0
   14.2635    9.8811   14.1146 Cl  0  0  0  0  0  0  0  0  0  0  0  0
   14.5948    8.5725   11.7508 C   0  0  0  0  0  0  0  0  0  0  0  0
   13.7305    7.6170   12.1235 F   0  0  0  0  0  0  0  0  0  0  0  0
   15.0592    8.5272   10.4626 C   0  0  0  0  0  0  0  0  0  0  0  0
   15.9634    9.4926   10.0361 C   0  0  0  0  0  0  0  0  0  0  0  0
   16.4475    9.3514    8.7567 N   0  0  0  0  0  0  0  0  0  0  0  0
   20.1393   13.8365   10.5924 C   0  0  0  0  0  0  0  0  0  0  0  0
   21.0535   14.5177   11.5806 C   0  0  0  0  0  0  0  0  0  0  0  0
   20.5338   13.9857   12.8826 C   0  0  0  0  0  0  0  0  0  0  0  0
   20.1726   12.6356   12.6085 O   0  0  0  0  0  0  0  0  0  0  0  0
  1  2  1  0
  3  2  1  6
  3  4  1  0
  4  5  2  0
  4  6  1  0
  6  7  1  0
  7  8  2  0
  8  9  1  0
  9 10  1  0
  9 11  2  0
 11 12  1  0
 11 13  1  0
 13 14  2  0
 14 15  1  0
  3 16  1  0
 16 17  1  0
 17 18  1  0
 18 19  1  0
 19  3  1  0
 14  7  1  0
M  END
>  <HIPPO ID>  (376) 
114348

>  <alias>  (376) 
None

>  <ref_mols>  (376) 
c0692a,c1116a

>  <submitter_email>  (376) 
None

>  <ref_pdb>  (376) 
c0270a

>  <inchikey>  (376) 
RWEOUODOERYMKO-LBPRGKRZSA-N

>  <generation_date>  (376) 
None

>  <original ID>  (376) 
RWEOUODOERYMKO-LBPRGKRZSA-N

>  <tags>  (376) 
[]

>  <exports>  (376) 
nan

>  <method>  (376) 
None

>  <submitter_name>  (376) 
None

>  <original SMILES>  (376) 
NC[C@]1(C(=O)Nc2cc(Cl)c(F)cc2N)CCCO1

>  <ref_url>  (376) 
None

$$$$
RWEOUODOERYMKO-GFCCVEGCSA-N
     RDKit          3D

 19 20  0  0  0  0  0  0  0  0999 V2000
   21.9230   11.6131   10.4935 N   0  0  0  0  0  0  0  0  0  0  0  0
   20.5054   11.3395   10.7121 C   0  0  0  0  0  0  0  0  0  0  0  0
   19.6547   12.5569   11.1613 C   0  0  1  0  0  0  0  0  0  0  0  0
   18.1434   12.1391   11.3812 C   0  0  0  0  0  0  0  0  0  0  0  0
   17.4505   12.7229   12.2203 O   0  0  0  0  0  0  0  0  0  0  0  0
   17.6192   11.1259   10.5828 N   0  0  0  0  0  0  0  0  0  0  0  0
   16.4675   10.3480   10.8757 C   0  0  0  0  0  0  0  0  0  0  0  0
   15.9240   10.3265   12.1485 C   0  0  0  0  0  0  0  0  0  0  0  0
   14.9599    9.3855   12.4727 C   0  0  0  0  0  0  0  0  0  0  0  0
   14.3028    9.5108   14.0417 Cl  0  0  0  0  0  0  0  0  0  0  0  0
   14.5558    8.4269   11.5466 C   0  0  0  0  0  0  0  0  0  0  0  0
   13.6570    7.4763   11.8434 F   0  0  0  0  0  0  0  0  0  0  0  0
   15.0120    8.4940   10.2522 C   0  0  0  0  0  0  0  0  0  0  0  0
   15.9159    9.4918    9.9002 C   0  0  0  0  0  0  0  0  0  0  0  0
   16.3341    9.4828    8.5787 N   0  0  0  0  0  0  0  0  0  0  0  0
   20.2284   13.1772   12.4519 C   0  0  0  0  0  0  0  0  0  0  0  0
   21.1055   14.3071   11.9882 C   0  0  0  0  0  0  0  0  0  0  0  0
   20.3966   14.7542   10.7440 C   0  0  0  0  0  0  0  0  0  0  0  0
   19.7688   13.6002   10.1693 O   0  0  0  0  0  0  0  0  0  0  0  0
  1  2  1  0
  3  2  1  6
  3  4  1  0
  4  5  2  0
  4  6  1  0
  6  7  1  0
  7  8  2  0
  8  9  1  0
  9 10  1  0
  9 11  2  0
 11 12  1  0
 11 13  1  0
 13 14  2  0
 14 15  1  0
  3 16  1  0
 16 17  1  0
 17 18  1  0
 18 19  1  0
 19  3  1  0
 14  7  1  0
M  END
>  <HIPPO ID>  (377) 
114349

>  <alias>  (377) 
None

>  <ref_mols>  (377) 
c0692a,c1116a

>  <submitter_email>  (377) 
None

>  <ref_pdb>  (377) 
c0270a

>  <inchikey>  (377) 
RWEOUODOERYMKO-GFCCVEGCSA-N

>  <generation_date>  (377) 
None

>  <original ID>  (377) 
RWEOUODOERYMKO-GFCCVEGCSA-N

>  <tags>  (377) 
[]

>  <exports>  (377) 
nan

>  <method>  (377) 
None

>  <submitter_name>  (377) 
None

>  <original SMILES>  (377) 
NC[C@@]1(C(=O)Nc2cc(Cl)c(F)cc2N)CCCO1

>  <ref_url>  (377) 
None

$$$$
FLOCPGQTAJWCQT-LBPRGKRZSA-N
     RDKit          3D

 19 20  0  0  0  0  0  0  0  0999 V2000
   21.8686   11.3597   10.8465 N   0  0  0  0  0  0  0  0  0  0  0  0
   20.4191   11.2830   10.7684 C   0  0  0  0  0  0  0  0  0  0  0  0
   19.6354   12.5104   11.2531 C   0  0  2  0  0  0  0  0  0  0  0  0
   18.0730   12.2236   11.2896 C   0  0  0  0  0  0  0  0  0  0  0  0
   17.3211   12.9307   11.9683 O   0  0  0  0  0  0  0  0  0  0  0  0
   17.5836   11.1474   10.5537 N   0  0  0  0  0  0  0  0  0  0  0  0
   16.4151   10.3875   10.8344 C   0  0  0  0  0  0  0  0  0  0  0  0
   15.8052   10.4046   12.0744 C   0  0  0  0  0  0  0  0  0  0  0  0
   14.8945    9.4031   12.3894 C   0  0  0  0  0  0  0  0  0  0  0  0
   14.2699    9.5188   13.5611 F   0  0  0  0  0  0  0  0  0  0  0  0
   14.6161    8.3519   11.5135 C   0  0  0  0  0  0  0  0  0  0  0  0
   13.6911    6.9600   11.9358 Cl  0  0  0  0  0  0  0  0  0  0  0  0
   15.0895    8.4305   10.2271 C   0  0  0  0  0  0  0  0  0  0  0  0
   15.9277    9.4812    9.8699 C   0  0  0  0  0  0  0  0  0  0  0  0
   16.3697    9.4684    8.5569 N   0  0  0  0  0  0  0  0  0  0  0  0
   20.1007   13.8049   10.5893 C   0  0  0  0  0  0  0  0  0  0  0  0
   20.9140   14.5454   11.6244 C   0  0  0  0  0  0  0  0  0  0  0  0
   20.2821   14.0748   12.8987 C   0  0  0  0  0  0  0  0  0  0  0  0
   19.9916   12.7040   12.6495 O   0  0  0  0  0  0  0  0  0  0  0  0
  1  2  1  0
  3  2  1  6
  3  4  1  0
  4  5  2  0
  4  6  1  0
  6  7  1  0
  7  8  2  0
  8  9  1  0
  9 10  1  0
  9 11  2  0
 11 12  1  0
 11 13  1  0
 13 14  2  0
 14 15  1  0
  3 16  1  0
 16 17  1  0
 17 18  1  0
 18 19  1  0
 19  3  1  0
 14  7  1  0
M  END
>  <HIPPO ID>  (378) 
114350

>  <alias>  (378) 
None

>  <ref_mols>  (378) 
c0692a,c1116a

>  <submitter_email>  (378) 
None

>  <ref_pdb>  (378) 
c0270a

>  <inchikey>  (378) 
FLOCPGQTAJWCQT-LBPRGKRZSA-N

>  <generation_date>  (378) 
None

>  <original ID>  (378) 
FLOCPGQTAJWCQT-LBPRGKRZSA-N

>  <tags>  (378) 
[]

>  <exports>  (378) 
nan

>  <method>  (378) 
None

>  <submitter_name>  (378) 
None

>  <original SMILES>  (378) 
NC[C@]1(C(=O)Nc2cc(F)c(Cl)cc2N)CCCO1

>  <ref_url>  (378) 
None

$$$$
FLOCPGQTAJWCQT-GFCCVEGCSA-N
     RDKit          3D

 19 20  0  0  0  0  0  0  0  0999 V2000
   21.8474   11.6560   10.5218 N   0  0  0  0  0  0  0  0  0  0  0  0
   20.4290   11.3648   10.7427 C   0  0  0  0  0  0  0  0  0  0  0  0
   19.5714   12.5860   11.1604 C   0  0  1  0  0  0  0  0  0  0  0  0
   18.0545   12.1704   11.4088 C   0  0  0  0  0  0  0  0  0  0  0  0
   17.3690   12.7699   12.2432 O   0  0  0  0  0  0  0  0  0  0  0  0
   17.5237   11.1416   10.6467 N   0  0  0  0  0  0  0  0  0  0  0  0
   16.3695   10.3685   10.9524 C   0  0  0  0  0  0  0  0  0  0  0  0
   15.7421   10.3989   12.1835 C   0  0  0  0  0  0  0  0  0  0  0  0
   14.8409    9.3931   12.5074 C   0  0  0  0  0  0  0  0  0  0  0  0
   14.1995    9.5254   13.6679 F   0  0  0  0  0  0  0  0  0  0  0  0
   14.5819    8.3264   11.6476 C   0  0  0  0  0  0  0  0  0  0  0  0
   13.6552    6.9367   12.0750 Cl  0  0  0  0  0  0  0  0  0  0  0  0
   15.0724    8.3874   10.3677 C   0  0  0  0  0  0  0  0  0  0  0  0
   15.9148    9.4354   10.0030 C   0  0  0  0  0  0  0  0  0  0  0  0
   16.4502    9.3735    8.7393 N   0  0  0  0  0  0  0  0  0  0  0  0
   20.1173   13.2340   12.4457 C   0  0  0  0  0  0  0  0  0  0  0  0
   20.0042   14.7122   12.1956 C   0  0  0  0  0  0  0  0  0  0  0  0
   20.3369   14.7676   10.7344 C   0  0  0  0  0  0  0  0  0  0  0  0
   19.7137   13.6119   10.1526 O   0  0  0  0  0  0  0  0  0  0  0  0
  1  2  1  0
  3  2  1  6
  3  4  1  0
  4  5  2  0
  4  6  1  0
  6  7  1  0
  7  8  2  0
  8  9  1  0
  9 10  1  0
  9 11  2  0
 11 12  1  0
 11 13  1  0
 13 14  2  0
 14 15  1  0
  3 16  1  0
 16 17  1  0
 17 18  1  0
 18 19  1  0
 19  3  1  0
 14  7  1  0
M  END
>  <HIPPO ID>  (379) 
114351

>  <alias>  (379) 
None

>  <ref_mols>  (379) 
c0692a,c1116a

>  <submitter_email>  (379) 
None

>  <ref_pdb>  (379) 
c0270a

>  <inchikey>  (379) 
FLOCPGQTAJWCQT-GFCCVEGCSA-N

>  <generation_date>  (379) 
None

>  <original ID>  (379) 
FLOCPGQTAJWCQT-GFCCVEGCSA-N

>  <tags>  (379) 
[]

>  <exports>  (379) 
nan

>  <method>  (379) 
None

>  <submitter_name>  (379) 
None

>  <original SMILES>  (379) 
NC[C@@]1(C(=O)Nc2cc(F)c(Cl)cc2N)CCCO1

>  <ref_url>  (379) 
None

$$$$
AAEOZZFFFAQFTB-LBPRGKRZSA-N
     RDKit          3D

 19 20  0  0  0  0  0  0  0  0999 V2000
   22.0108   11.6077   10.5096 N   0  0  0  0  0  0  0  0  0  0  0  0
   20.5916   11.3040   10.6863 C   0  0  0  0  0  0  0  0  0  0  0  0
   19.7668   12.4887   11.2182 C   0  0  2  0  0  0  0  0  0  0  0  0
   18.2138   12.2058   11.2682 C   0  0  0  0  0  0  0  0  0  0  0  0
   17.4686   12.9545   11.9124 O   0  0  0  0  0  0  0  0  0  0  0  0
   17.7130   11.0951   10.5990 N   0  0  0  0  0  0  0  0  0  0  0  0
   16.5167   10.4051   10.9288 C   0  0  0  0  0  0  0  0  0  0  0  0
   15.9604   10.5056   12.1891 C   0  0  0  0  0  0  0  0  0  0  0  0
   15.0045    9.5812   12.5851 C   0  0  0  0  0  0  0  0  0  0  0  0
   14.3219    9.8122   14.3049 Br  0  0  0  0  0  0  0  0  0  0  0  0
   14.6048    8.5500   11.7411 C   0  0  0  0  0  0  0  0  0  0  0  0
   13.7361    7.5983   12.1129 F   0  0  0  0  0  0  0  0  0  0  0  0
   15.0517    8.5207   10.4466 C   0  0  0  0  0  0  0  0  0  0  0  0
   15.9650    9.4806   10.0228 C   0  0  0  0  0  0  0  0  0  0  0  0
   16.4488    9.3349    8.7426 N   0  0  0  0  0  0  0  0  0  0  0  0
   20.1437   13.8337   10.5901 C   0  0  0  0  0  0  0  0  0  0  0  0
   20.9863   14.5545   11.6145 C   0  0  0  0  0  0  0  0  0  0  0  0
   20.4292   14.0137   12.8966 C   0  0  0  0  0  0  0  0  0  0  0  0
   20.1532   12.6440   12.6139 O   0  0  0  0  0  0  0  0  0  0  0  0
  1  2  1  0
  3  2  1  6
  3  4  1  0
  4  5  2  0
  4  6  1  0
  6  7  1  0
  7  8  2  0
  8  9  1  0
  9 10  1  0
  9 11  2  0
 11 12  1  0
 11 13  1  0
 13 14  2  0
 14 15  1  0
  3 16  1  0
 16 17  1  0
 17 18  1  0
 18 19  1  0
 19  3  1  0
 14  7  1  0
M  END
>  <HIPPO ID>  (380) 
114366

>  <alias>  (380) 
None

>  <ref_mols>  (380) 
c0692a,c1116a

>  <submitter_email>  (380) 
None

>  <ref_pdb>  (380) 
c0270a

>  <inchikey>  (380) 
AAEOZZFFFAQFTB-LBPRGKRZSA-N

>  <generation_date>  (380) 
None

>  <original ID>  (380) 
AAEOZZFFFAQFTB-LBPRGKRZSA-N

>  <tags>  (380) 
[]

>  <exports>  (380) 
nan

>  <method>  (380) 
None

>  <submitter_name>  (380) 
None

>  <original SMILES>  (380) 
NC[C@]1(C(=O)Nc2cc(Br)c(F)cc2N)CCCO1

>  <ref_url>  (380) 
None

$$$$
AAEOZZFFFAQFTB-GFCCVEGCSA-N
     RDKit          3D

 19 20  0  0  0  0  0  0  0  0999 V2000
   21.9201   11.6386   10.4882 N   0  0  0  0  0  0  0  0  0  0  0  0
   20.5045   11.3544   10.7148 C   0  0  0  0  0  0  0  0  0  0  0  0
   19.6465   12.5675   11.1630 C   0  0  1  0  0  0  0  0  0  0  0  0
   18.1346   12.1435   11.3706 C   0  0  0  0  0  0  0  0  0  0  0  0
   17.4282   12.7319   12.1957 O   0  0  0  0  0  0  0  0  0  0  0  0
   17.6210   11.1219   10.5750 N   0  0  0  0  0  0  0  0  0  0  0  0
   16.4723   10.3399   10.8696 C   0  0  0  0  0  0  0  0  0  0  0  0
   15.9500   10.3022   12.1500 C   0  0  0  0  0  0  0  0  0  0  0  0
   14.9926    9.3553   12.4796 C   0  0  0  0  0  0  0  0  0  0  0  0
   14.3329    9.4634   14.2265 Br  0  0  0  0  0  0  0  0  0  0  0  0
   14.5640    8.4152   11.5479 C   0  0  0  0  0  0  0  0  0  0  0  0
   13.6635    7.4670   11.8462 F   0  0  0  0  0  0  0  0  0  0  0  0
   15.0019    8.4970   10.2478 C   0  0  0  0  0  0  0  0  0  0  0  0
   15.9064    9.4946    9.8937 C   0  0  0  0  0  0  0  0  0  0  0  0
   16.3162    9.4901    8.5699 N   0  0  0  0  0  0  0  0  0  0  0  0
   20.2082   13.1838   12.4610 C   0  0  0  0  0  0  0  0  0  0  0  0
   21.0699   14.3315   12.0126 C   0  0  0  0  0  0  0  0  0  0  0  0
   20.3594   14.7805   10.7708 C   0  0  0  0  0  0  0  0  0  0  0  0
   19.7658   13.6159   10.1755 O   0  0  0  0  0  0  0  0  0  0  0  0
  1  2  1  0
  3  2  1  6
  3  4  1  0
  4  5  2  0
  4  6  1  0
  6  7  1  0
  7  8  2  0
  8  9  1  0
  9 10  1  0
  9 11  2  0
 11 12  1  0
 11 13  1  0
 13 14  2  0
 14 15  1  0
  3 16  1  0
 16 17  1  0
 17 18  1  0
 18 19  1  0
 19  3  1  0
 14  7  1  0
M  END
>  <HIPPO ID>  (381) 
114367

>  <alias>  (381) 
None

>  <ref_mols>  (381) 
c0692a,c1116a

>  <submitter_email>  (381) 
None

>  <ref_pdb>  (381) 
c0270a

>  <inchikey>  (381) 
AAEOZZFFFAQFTB-GFCCVEGCSA-N

>  <generation_date>  (381) 
None

>  <original ID>  (381) 
AAEOZZFFFAQFTB-GFCCVEGCSA-N

>  <tags>  (381) 
[]

>  <exports>  (381) 
nan

>  <method>  (381) 
None

>  <submitter_name>  (381) 
None

>  <original SMILES>  (381) 
NC[C@@]1(C(=O)Nc2cc(Br)c(F)cc2N)CCCO1

>  <ref_url>  (381) 
None

$$$$
ALTIECDYYGVLLE-LBPRGKRZSA-N
     RDKit          3D

 19 20  0  0  0  0  0  0  0  0999 V2000
   21.9526   11.5275   10.4339 N   0  0  0  0  0  0  0  0  0  0  0  0
   20.5338   11.2669   10.6788 C   0  0  0  0  0  0  0  0  0  0  0  0
   19.7016   12.4513   11.2238 C   0  0  2  0  0  0  0  0  0  0  0  0
   18.1399   12.1424   11.3062 C   0  0  0  0  0  0  0  0  0  0  0  0
   17.4045   12.8238   12.0295 O   0  0  0  0  0  0  0  0  0  0  0  0
   17.6263   11.0878   10.5572 N   0  0  0  0  0  0  0  0  0  0  0  0
   16.4442   10.3421   10.8351 C   0  0  0  0  0  0  0  0  0  0  0  0
   15.8360   10.3462   12.0770 C   0  0  0  0  0  0  0  0  0  0  0  0
   14.9137    9.3499   12.3823 C   0  0  0  0  0  0  0  0  0  0  0  0
   14.2940    9.4556   13.5573 F   0  0  0  0  0  0  0  0  0  0  0  0
   14.6240    8.3133   11.4948 C   0  0  0  0  0  0  0  0  0  0  0  0
   13.6321    6.7611   11.9417 Br  0  0  0  0  0  0  0  0  0  0  0  0
   15.0876    8.4121   10.2057 C   0  0  0  0  0  0  0  0  0  0  0  0
   15.9363    9.4593    9.8601 C   0  0  0  0  0  0  0  0  0  0  0  0
   16.3691    9.4622    8.5435 N   0  0  0  0  0  0  0  0  0  0  0  0
   20.0700   13.8013   10.6160 C   0  0  0  0  0  0  0  0  0  0  0  0
   21.0830   14.4166   11.5492 C   0  0  0  0  0  0  0  0  0  0  0  0
   20.6073   13.9061   12.8755 C   0  0  0  0  0  0  0  0  0  0  0  0
   20.0837   12.6079   12.6193 O   0  0  0  0  0  0  0  0  0  0  0  0
  1  2  1  0
  3  2  1  6
  3  4  1  0
  4  5  2  0
  4  6  1  0
  6  7  1  0
  7  8  2  0
  8  9  1  0
  9 10  1  0
  9 11  2  0
 11 12  1  0
 11 13  1  0
 13 14  2  0
 14 15  1  0
  3 16  1  0
 16 17  1  0
 17 18  1  0
 18 19  1  0
 19  3  1  0
 14  7  1  0
M  END
>  <HIPPO ID>  (382) 
114368

>  <alias>  (382) 
None

>  <ref_mols>  (382) 
c0692a,c1116a

>  <submitter_email>  (382) 
None

>  <ref_pdb>  (382) 
c0270a

>  <inchikey>  (382) 
ALTIECDYYGVLLE-LBPRGKRZSA-N

>  <generation_date>  (382) 
None

>  <original ID>  (382) 
ALTIECDYYGVLLE-LBPRGKRZSA-N

>  <tags>  (382) 
[]

>  <exports>  (382) 
nan

>  <method>  (382) 
None

>  <submitter_name>  (382) 
None

>  <original SMILES>  (382) 
NC[C@]1(C(=O)Nc2cc(F)c(Br)cc2N)CCCO1

>  <ref_url>  (382) 
None

$$$$
ALTIECDYYGVLLE-GFCCVEGCSA-N
     RDKit          3D

 19 20  0  0  0  0  0  0  0  0999 V2000
   21.7731   11.7246   10.3436 N   0  0  0  0  0  0  0  0  0  0  0  0
   20.4051   11.3805   10.7225 C   0  0  0  0  0  0  0  0  0  0  0  0
   19.5310   12.5594   11.2397 C   0  0  1  0  0  0  0  0  0  0  0  0
   18.0482   12.0635   11.5309 C   0  0  0  0  0  0  0  0  0  0  0  0
   17.4368   12.4804   12.5186 O   0  0  0  0  0  0  0  0  0  0  0  0
   17.4795   11.1507   10.6456 N   0  0  0  0  0  0  0  0  0  0  0  0
   16.3582   10.3069   10.8935 C   0  0  0  0  0  0  0  0  0  0  0  0
   15.7530   10.2146   12.1345 C   0  0  0  0  0  0  0  0  0  0  0  0
   14.8563    9.1853   12.3886 C   0  0  0  0  0  0  0  0  0  0  0  0
   14.2452    9.2198   13.5718 F   0  0  0  0  0  0  0  0  0  0  0  0
   14.5708    8.2034   11.4447 C   0  0  0  0  0  0  0  0  0  0  0  0
   13.5471    6.6509   11.8022 Br  0  0  0  0  0  0  0  0  0  0  0  0
   15.0479    8.3750   10.1677 C   0  0  0  0  0  0  0  0  0  0  0  0
   15.8883    9.4499    9.8768 C   0  0  0  0  0  0  0  0  0  0  0  0
   16.3585    9.4873    8.5737 N   0  0  0  0  0  0  0  0  0  0  0  0
   20.1478   13.2075   12.4909 C   0  0  0  0  0  0  0  0  0  0  0  0
   21.0415   14.3029   11.9788 C   0  0  0  0  0  0  0  0  0  0  0  0
   20.3654   14.7043   10.7000 C   0  0  0  0  0  0  0  0  0  0  0  0
   19.5401   13.6164   10.2662 O   0  0  0  0  0  0  0  0  0  0  0  0
  1  2  1  0
  3  2  1  6
  3  4  1  0
  4  5  2  0
  4  6  1  0
  6  7  1  0
  7  8  2  0
  8  9  1  0
  9 10  1  0
  9 11  2  0
 11 12  1  0
 11 13  1  0
 13 14  2  0
 14 15  1  0
  3 16  1  0
 16 17  1  0
 17 18  1  0
 18 19  1  0
 19  3  1  0
 14  7  1  0
M  END
>  <HIPPO ID>  (383) 
114369

>  <alias>  (383) 
None

>  <ref_mols>  (383) 
c0692a,c1116a

>  <submitter_email>  (383) 
None

>  <ref_pdb>  (383) 
c0270a

>  <inchikey>  (383) 
ALTIECDYYGVLLE-GFCCVEGCSA-N

>  <generation_date>  (383) 
None

>  <original ID>  (383) 
ALTIECDYYGVLLE-GFCCVEGCSA-N

>  <tags>  (383) 
[]

>  <exports>  (383) 
nan

>  <method>  (383) 
None

>  <submitter_name>  (383) 
None

>  <original SMILES>  (383) 
NC[C@@]1(C(=O)Nc2cc(F)c(Br)cc2N)CCCO1

>  <ref_url>  (383) 
None

$$$$
UJNCRIXBAOBQAJ-CYBMUJFWSA-N
     RDKit          3D

 19 20  0  0  0  0  0  0  0  0999 V2000
   16.0092   11.2262   13.3945 C   0  0  0  0  0  0  0  0  0  0  0  0
   15.7637   10.3125   12.2383 C   0  0  0  0  0  0  0  0  0  0  0  0
   14.8299    9.3022   12.4675 C   0  0  0  0  0  0  0  0  0  0  0  0
   14.1465    9.3421   13.6122 F   0  0  0  0  0  0  0  0  0  0  0  0
   14.5382    8.2988   11.5558 C   0  0  0  0  0  0  0  0  0  0  0  0
   15.0341    8.4176   10.2827 C   0  0  0  0  0  0  0  0  0  0  0  0
   15.8774    9.4847    9.9736 C   0  0  0  0  0  0  0  0  0  0  0  0
   16.3191    9.5206    8.6569 N   0  0  0  0  0  0  0  0  0  0  0  0
   16.3651   10.3647   10.9792 C   0  0  0  0  0  0  0  0  0  0  0  0
   17.5225   11.1368   10.6593 N   0  0  0  0  0  0  0  0  0  0  0  0
   18.0109   12.2742   11.2859 C   0  0  0  0  0  0  0  0  0  0  0  0
   17.2694   13.0618   11.8794 O   0  0  0  0  0  0  0  0  0  0  0  0
   19.5573   12.6055   11.1413 C   0  0  2  0  0  0  0  0  0  0  0  0
   20.3551   11.3508   10.7187 C   0  0  0  0  0  0  0  0  0  0  0  0
   21.7908   11.4976   10.5241 N   0  0  0  0  0  0  0  0  0  0  0  0
   20.0914   13.1859   12.4659 C   0  0  0  0  0  0  0  0  0  0  0  0
   20.9795   14.3358   12.0740 C   0  0  0  0  0  0  0  0  0  0  0  0
   20.3288   14.8111   10.8113 C   0  0  0  0  0  0  0  0  0  0  0  0
   19.7898   13.6488   10.1669 O   0  0  0  0  0  0  0  0  0  0  0  0
  1  2  1  0
  2  3  2  0
  3  4  1  0
  3  5  1  0
  5  6  2  0
  6  7  1  0
  7  8  1  0
  7  9  2  0
  9 10  1  0
 10 11  1  0
 11 12  2  0
 11 13  1  0
 13 14  1  6
 14 15  1  0
 13 16  1  0
 16 17  1  0
 17 18  1  0
 18 19  1  0
  9  2  1  0
 19 13  1  0
M  END
>  <HIPPO ID>  (384) 
114373

>  <alias>  (384) 
None

>  <ref_mols>  (384) 
c0692a,c1116a

>  <submitter_email>  (384) 
None

>  <ref_pdb>  (384) 
c0270a

>  <inchikey>  (384) 
UJNCRIXBAOBQAJ-CYBMUJFWSA-N

>  <generation_date>  (384) 
None

>  <original ID>  (384) 
UJNCRIXBAOBQAJ-CYBMUJFWSA-N

>  <tags>  (384) 
[]

>  <exports>  (384) 
nan

>  <method>  (384) 
None

>  <submitter_name>  (384) 
None

>  <original SMILES>  (384) 
Cc1c(F)ccc(N)c1NC(=O)[C@]1(CN)CCCO1

>  <ref_url>  (384) 
None

$$$$
UJNCRIXBAOBQAJ-ZDUSSCGKSA-N
     RDKit          3D

 19 20  0  0  0  0  0  0  0  0999 V2000
   16.0223   11.4328   13.3555 C   0  0  0  0  0  0  0  0  0  0  0  0
   15.7897   10.4353   12.2692 C   0  0  0  0  0  0  0  0  0  0  0  0
   14.8419    9.4510   12.5488 C   0  0  0  0  0  0  0  0  0  0  0  0
   14.1172    9.5860   13.6610 F   0  0  0  0  0  0  0  0  0  0  0  0
   14.5723    8.3788   11.7101 C   0  0  0  0  0  0  0  0  0  0  0  0
   15.0936    8.4001   10.4424 C   0  0  0  0  0  0  0  0  0  0  0  0
   15.9874    9.4125   10.0896 C   0  0  0  0  0  0  0  0  0  0  0  0
   16.2716    9.5048    8.7403 N   0  0  0  0  0  0  0  0  0  0  0  0
   16.4255   10.3889   11.0278 C   0  0  0  0  0  0  0  0  0  0  0  0
   17.6159   11.1122   10.6994 N   0  0  0  0  0  0  0  0  0  0  0  0
   18.0802   12.3119   11.2259 C   0  0  0  0  0  0  0  0  0  0  0  0
   17.3062   13.1604   11.6796 O   0  0  0  0  0  0  0  0  0  0  0  0
   19.6458   12.5710   11.2546 C   0  0  1  0  0  0  0  0  0  0  0  0
   20.4639   11.3709   10.7154 C   0  0  0  0  0  0  0  0  0  0  0  0
   21.9110   11.5604   10.5888 N   0  0  0  0  0  0  0  0  0  0  0  0
   20.0940   13.9319   10.7084 C   0  0  0  0  0  0  0  0  0  0  0  0
   20.0702   14.8602   11.8956 C   0  0  0  0  0  0  0  0  0  0  0  0
   20.5389   13.9360   12.9753 C   0  0  0  0  0  0  0  0  0  0  0  0
   19.9257   12.6828   12.6782 O   0  0  0  0  0  0  0  0  0  0  0  0
  1  2  1  0
  2  3  2  0
  3  4  1  0
  3  5  1  0
  5  6  2  0
  6  7  1  0
  7  8  1  0
  7  9  2  0
  9 10  1  0
 10 11  1  0
 11 12  2  0
 11 13  1  0
 13 14  1  6
 14 15  1  0
 13 16  1  0
 16 17  1  0
 17 18  1  0
 18 19  1  0
  9  2  1  0
 19 13  1  0
M  END
>  <HIPPO ID>  (385) 
114374

>  <alias>  (385) 
None

>  <ref_mols>  (385) 
c0692a,c1116a

>  <submitter_email>  (385) 
None

>  <ref_pdb>  (385) 
c0270a

>  <inchikey>  (385) 
UJNCRIXBAOBQAJ-ZDUSSCGKSA-N

>  <generation_date>  (385) 
None

>  <original ID>  (385) 
UJNCRIXBAOBQAJ-ZDUSSCGKSA-N

>  <tags>  (385) 
[]

>  <exports>  (385) 
nan

>  <method>  (385) 
None

>  <submitter_name>  (385) 
None

>  <original SMILES>  (385) 
Cc1c(F)ccc(N)c1NC(=O)[C@@]1(CN)CCCO1

>  <ref_url>  (385) 
None

$$$$
DZSBCLSJIXWZNY-CYBMUJFWSA-N
     RDKit          3D

 19 20  0  0  0  0  0  0  0  0999 V2000
   14.4125    8.9242   13.5904 C   0  0  0  0  0  0  0  0  0  0  0  0
   14.9595    9.1942   12.2307 C   0  0  0  0  0  0  0  0  0  0  0  0
   14.5575    8.4241   11.1311 C   0  0  0  0  0  0  0  0  0  0  0  0
   13.6310    7.4628   11.2676 F   0  0  0  0  0  0  0  0  0  0  0  0
   15.0730    8.6523    9.8773 C   0  0  0  0  0  0  0  0  0  0  0  0
   16.0909    9.5840    9.7390 C   0  0  0  0  0  0  0  0  0  0  0  0
   16.5332   10.3627   10.8245 C   0  0  0  0  0  0  0  0  0  0  0  0
   17.7024   11.1360   10.6038 N   0  0  0  0  0  0  0  0  0  0  0  0
   18.1736   12.2080   11.3408 C   0  0  0  0  0  0  0  0  0  0  0  0
   17.4294   12.8822   12.0636 O   0  0  0  0  0  0  0  0  0  0  0  0
   19.6845   12.6030   11.1666 C   0  0  2  0  0  0  0  0  0  0  0  0
   20.5532   11.4037   10.6995 C   0  0  0  0  0  0  0  0  0  0  0  0
   21.9429   11.7337   10.3940 N   0  0  0  0  0  0  0  0  0  0  0  0
   20.2369   13.2099   12.4678 C   0  0  0  0  0  0  0  0  0  0  0  0
   21.0983   14.3608   12.0255 C   0  0  0  0  0  0  0  0  0  0  0  0
   20.4019   14.8147   10.7750 C   0  0  0  0  0  0  0  0  0  0  0  0
   19.7651   13.6720   10.1945 O   0  0  0  0  0  0  0  0  0  0  0  0
   15.8837   10.2401   12.0673 C   0  0  0  0  0  0  0  0  0  0  0  0
   16.3185   10.9294   13.2265 N   0  0  0  0  0  0  0  0  0  0  0  0
  1  2  1  0
  2  3  2  0
  3  4  1  0
  3  5  1  0
  5  6  2  0
  6  7  1  0
  7  8  1  0
  8  9  1  0
  9 10  2  0
  9 11  1  0
 11 12  1  6
 12 13  1  0
 11 14  1  0
 14 15  1  0
 15 16  1  0
 16 17  1  0
  7 18  2  0
 18 19  1  0
 18  2  1  0
 17 11  1  0
M  END
>  <HIPPO ID>  (386) 
114375

>  <alias>  (386) 
None

>  <ref_mols>  (386) 
c0692a,c1116a

>  <submitter_email>  (386) 
None

>  <ref_pdb>  (386) 
c0270a

>  <inchikey>  (386) 
DZSBCLSJIXWZNY-CYBMUJFWSA-N

>  <generation_date>  (386) 
None

>  <original ID>  (386) 
DZSBCLSJIXWZNY-CYBMUJFWSA-N

>  <tags>  (386) 
[]

>  <exports>  (386) 
nan

>  <method>  (386) 
None

>  <submitter_name>  (386) 
None

>  <original SMILES>  (386) 
Cc1c(F)ccc(NC(=O)[C@]2(CN)CCCO2)c1N

>  <ref_url>  (386) 
None

$$$$
DZSBCLSJIXWZNY-ZDUSSCGKSA-N
     RDKit          3D

 19 20  0  0  0  0  0  0  0  0999 V2000
   14.4121    9.2313   13.5972 C   0  0  0  0  0  0  0  0  0  0  0  0
   14.9886    9.3879   12.2309 C   0  0  0  0  0  0  0  0  0  0  0  0
   14.6075    8.5364   11.1836 C   0  0  0  0  0  0  0  0  0  0  0  0
   13.6850    7.5797   11.3702 F   0  0  0  0  0  0  0  0  0  0  0  0
   15.1506    8.6671    9.9275 C   0  0  0  0  0  0  0  0  0  0  0  0
   16.1886    9.5681    9.7489 C   0  0  0  0  0  0  0  0  0  0  0  0
   16.6242   10.4099   10.7888 C   0  0  0  0  0  0  0  0  0  0  0  0
   17.8436   11.1032   10.5665 N   0  0  0  0  0  0  0  0  0  0  0  0
   18.3022   12.2402   11.2093 C   0  0  0  0  0  0  0  0  0  0  0  0
   17.5305   13.0215   11.7817 O   0  0  0  0  0  0  0  0  0  0  0  0
   19.8494   12.5179   11.2059 C   0  0  1  0  0  0  0  0  0  0  0  0
   20.6876   11.3273   10.7028 C   0  0  0  0  0  0  0  0  0  0  0  0
   22.1124   11.6251   10.5689 N   0  0  0  0  0  0  0  0  0  0  0  0
   20.2288   13.8593   10.5687 C   0  0  0  0  0  0  0  0  0  0  0  0
   21.0769   14.5727   11.5935 C   0  0  0  0  0  0  0  0  0  0  0  0
   20.5091   14.0469   12.8790 C   0  0  0  0  0  0  0  0  0  0  0  0
   20.1948   12.6832   12.6092 O   0  0  0  0  0  0  0  0  0  0  0  0
   15.9295   10.4091   12.0117 C   0  0  0  0  0  0  0  0  0  0  0  0
   16.3362   11.1879   13.1208 N   0  0  0  0  0  0  0  0  0  0  0  0
  1  2  1  0
  2  3  2  0
  3  4  1  0
  3  5  1  0
  5  6  2  0
  6  7  1  0
  7  8  1  0
  8  9  1  0
  9 10  2  0
  9 11  1  0
 11 12  1  6
 12 13  1  0
 11 14  1  0
 14 15  1  0
 15 16  1  0
 16 17  1  0
  7 18  2  0
 18 19  1  0
 18  2  1  0
 17 11  1  0
M  END
>  <HIPPO ID>  (387) 
114376

>  <alias>  (387) 
None

>  <ref_mols>  (387) 
c0692a,c1116a

>  <submitter_email>  (387) 
None

>  <ref_pdb>  (387) 
c0270a

>  <inchikey>  (387) 
DZSBCLSJIXWZNY-ZDUSSCGKSA-N

>  <generation_date>  (387) 
None

>  <original ID>  (387) 
DZSBCLSJIXWZNY-ZDUSSCGKSA-N

>  <tags>  (387) 
[]

>  <exports>  (387) 
nan

>  <method>  (387) 
None

>  <submitter_name>  (387) 
None

>  <original SMILES>  (387) 
Cc1c(F)ccc(NC(=O)[C@@]2(CN)CCCO2)c1N

>  <ref_url>  (387) 
None

$$$$
AHMNPYJHYIANFK-LBPRGKRZSA-N
     RDKit          3D

 19 20  0  0  0  0  0  0  0  0999 V2000
   22.1308   11.6537   10.5690 N   0  0  0  0  0  0  0  0  0  0  0  0
   20.7148   11.3305   10.7151 C   0  0  0  0  0  0  0  0  0  0  0  0
   19.8607   12.5102   11.2194 C   0  0  2  0  0  0  0  0  0  0  0  0
   18.3158   12.2153   11.2242 C   0  0  0  0  0  0  0  0  0  0  0  0
   17.5341   12.9836   11.7998 O   0  0  0  0  0  0  0  0  0  0  0  0
   17.8770   11.0772   10.5696 N   0  0  0  0  0  0  0  0  0  0  0  0
   16.6479   10.3962   10.7520 C   0  0  0  0  0  0  0  0  0  0  0  0
   16.2450    9.5438    9.7042 C   0  0  0  0  0  0  0  0  0  0  0  0
   15.1899    8.6521    9.8415 C   0  0  0  0  0  0  0  0  0  0  0  0
   14.5581    8.5728   11.0542 C   0  0  0  0  0  0  0  0  0  0  0  0
   13.6157    7.6349   11.2244 F   0  0  0  0  0  0  0  0  0  0  0  0
   14.8797    9.4793   12.0610 C   0  0  0  0  0  0  0  0  0  0  0  0
   14.1791    9.5185   13.1983 F   0  0  0  0  0  0  0  0  0  0  0  0
   15.8927   10.4287   11.9288 C   0  0  0  0  0  0  0  0  0  0  0  0
   16.2569   11.1526   13.0887 N   0  0  0  0  0  0  0  0  0  0  0  0
   20.2202   13.8533   10.5752 C   0  0  0  0  0  0  0  0  0  0  0  0
   21.0389   14.5936   11.6046 C   0  0  0  0  0  0  0  0  0  0  0  0
   20.4742   14.0588   12.8879 C   0  0  0  0  0  0  0  0  0  0  0  0
   20.2048   12.6863   12.6205 O   0  0  0  0  0  0  0  0  0  0  0  0
  1  2  1  0
  3  2  1  6
  3  4  1  0
  4  5  2  0
  4  6  1  0
  6  7  1  0
  7  8  2  0
  8  9  1  0
  9 10  2  0
 10 11  1  0
 10 12  1  0
 12 13  1  0
 12 14  2  0
 14 15  1  0
  3 16  1  0
 16 17  1  0
 17 18  1  0
 18 19  1  0
 19  3  1  0
 14  7  1  0
M  END
>  <HIPPO ID>  (388) 
114389

>  <alias>  (388) 
None

>  <ref_mols>  (388) 
c0692a,c1116a

>  <submitter_email>  (388) 
None

>  <ref_pdb>  (388) 
c0270a

>  <inchikey>  (388) 
AHMNPYJHYIANFK-LBPRGKRZSA-N

>  <generation_date>  (388) 
None

>  <original ID>  (388) 
AHMNPYJHYIANFK-LBPRGKRZSA-N

>  <tags>  (388) 
[]

>  <exports>  (388) 
nan

>  <method>  (388) 
None

>  <submitter_name>  (388) 
None

>  <original SMILES>  (388) 
NC[C@]1(C(=O)Nc2ccc(F)c(F)c2N)CCCO1

>  <ref_url>  (388) 
None

$$$$
AHMNPYJHYIANFK-GFCCVEGCSA-N
     RDKit          3D

 19 20  0  0  0  0  0  0  0  0999 V2000
   22.0318   11.6925   10.5165 N   0  0  0  0  0  0  0  0  0  0  0  0
   20.6188   11.3848   10.7352 C   0  0  0  0  0  0  0  0  0  0  0  0
   19.7405   12.5940   11.1567 C   0  0  1  0  0  0  0  0  0  0  0  0
   18.2240   12.1968   11.3075 C   0  0  0  0  0  0  0  0  0  0  0  0
   17.4554   12.8826   11.9916 O   0  0  0  0  0  0  0  0  0  0  0  0
   17.7824   11.1013   10.5850 N   0  0  0  0  0  0  0  0  0  0  0  0
   16.5916   10.3586   10.7758 C   0  0  0  0  0  0  0  0  0  0  0  0
   16.1802    9.5477    9.6984 C   0  0  0  0  0  0  0  0  0  0  0  0
   15.1369    8.6374    9.8152 C   0  0  0  0  0  0  0  0  0  0  0  0
   14.5296    8.4906   11.0350 C   0  0  0  0  0  0  0  0  0  0  0  0
   13.5818    7.5533   11.1761 F   0  0  0  0  0  0  0  0  0  0  0  0
   14.8748    9.3385   12.0821 C   0  0  0  0  0  0  0  0  0  0  0  0
   14.2024    9.3111   13.2362 F   0  0  0  0  0  0  0  0  0  0  0  0
   15.8744   10.3044   11.9758 C   0  0  0  0  0  0  0  0  0  0  0  0
   16.2617   10.9656   13.1677 N   0  0  0  0  0  0  0  0  0  0  0  0
   20.2545   13.2177   12.4674 C   0  0  0  0  0  0  0  0  0  0  0  0
   21.0962   14.3873   12.0369 C   0  0  0  0  0  0  0  0  0  0  0  0
   20.4053   14.8204   10.7769 C   0  0  0  0  0  0  0  0  0  0  0  0
   19.8700   13.6392   10.1608 O   0  0  0  0  0  0  0  0  0  0  0  0
  1  2  1  0
  3  2  1  6
  3  4  1  0
  4  5  2  0
  4  6  1  0
  6  7  1  0
  7  8  2  0
  8  9  1  0
  9 10  2  0
 10 11  1  0
 10 12  1  0
 12 13  1  0
 12 14  2  0
 14 15  1  0
  3 16  1  0
 16 17  1  0
 17 18  1  0
 18 19  1  0
 19  3  1  0
 14  7  1  0
M  END
>  <HIPPO ID>  (389) 
114390

>  <alias>  (389) 
None

>  <ref_mols>  (389) 
c0692a,c1116a

>  <submitter_email>  (389) 
None

>  <ref_pdb>  (389) 
c0270a

>  <inchikey>  (389) 
AHMNPYJHYIANFK-GFCCVEGCSA-N

>  <generation_date>  (389) 
None

>  <original ID>  (389) 
AHMNPYJHYIANFK-GFCCVEGCSA-N

>  <tags>  (389) 
[]

>  <exports>  (389) 
nan

>  <method>  (389) 
None

>  <submitter_name>  (389) 
None

>  <original SMILES>  (389) 
NC[C@@]1(C(=O)Nc2ccc(F)c(F)c2N)CCCO1

>  <ref_url>  (389) 
None

$$$$
VYCZGXMENIXCOR-LBPRGKRZSA-N
     RDKit          3D

 19 20  0  0  0  0  0  0  0  0999 V2000
   22.0146   11.5436   10.4590 N   0  0  0  0  0  0  0  0  0  0  0  0
   20.5936   11.2760   10.6807 C   0  0  0  0  0  0  0  0  0  0  0  0
   19.7521   12.4645   11.1994 C   0  0  2  0  0  0  0  0  0  0  0  0
   18.1950   12.1694   11.2492 C   0  0  0  0  0  0  0  0  0  0  0  0
   17.4420   12.8941   11.9104 O   0  0  0  0  0  0  0  0  0  0  0  0
   17.7010   11.0777   10.5433 N   0  0  0  0  0  0  0  0  0  0  0  0
   16.5004   10.3721   10.8248 C   0  0  0  0  0  0  0  0  0  0  0  0
   15.8800   10.4495   12.0585 C   0  0  0  0  0  0  0  0  0  0  0  0
   14.8858    9.5358   12.3632 C   0  0  0  0  0  0  0  0  0  0  0  0
   14.2211    9.7211   13.5034 F   0  0  0  0  0  0  0  0  0  0  0  0
   14.5490    8.5014   11.4923 C   0  0  0  0  0  0  0  0  0  0  0  0
   13.6510    7.5598   11.8144 F   0  0  0  0  0  0  0  0  0  0  0  0
   15.0605    8.4934   10.2232 C   0  0  0  0  0  0  0  0  0  0  0  0
   15.9744    9.4762    9.8677 C   0  0  0  0  0  0  0  0  0  0  0  0
   16.4048    9.4430    8.5514 N   0  0  0  0  0  0  0  0  0  0  0  0
   20.1334   13.8110   10.5858 C   0  0  0  0  0  0  0  0  0  0  0  0
   21.0579   14.4703   11.5792 C   0  0  0  0  0  0  0  0  0  0  0  0
   20.5137   13.9578   12.8784 C   0  0  0  0  0  0  0  0  0  0  0  0
   20.0928   12.6263   12.6056 O   0  0  0  0  0  0  0  0  0  0  0  0
  1  2  1  0
  3  2  1  6
  3  4  1  0
  4  5  2  0
  4  6  1  0
  6  7  1  0
  7  8  2  0
  8  9  1  0
  9 10  1  0
  9 11  2  0
 11 12  1  0
 11 13  1  0
 13 14  2  0
 14 15  1  0
  3 16  1  0
 16 17  1  0
 17 18  1  0
 18 19  1  0
 19  3  1  0
 14  7  1  0
M  END
>  <HIPPO ID>  (390) 
114393

>  <alias>  (390) 
None

>  <ref_mols>  (390) 
c0692a,c1116a

>  <submitter_email>  (390) 
None

>  <ref_pdb>  (390) 
c0270a

>  <inchikey>  (390) 
VYCZGXMENIXCOR-LBPRGKRZSA-N

>  <generation_date>  (390) 
None

>  <original ID>  (390) 
VYCZGXMENIXCOR-LBPRGKRZSA-N

>  <tags>  (390) 
[]

>  <exports>  (390) 
nan

>  <method>  (390) 
None

>  <submitter_name>  (390) 
None

>  <original SMILES>  (390) 
NC[C@]1(C(=O)Nc2cc(F)c(F)cc2N)CCCO1

>  <ref_url>  (390) 
None

$$$$
VYCZGXMENIXCOR-GFCCVEGCSA-N
     RDKit          3D

 19 20  0  0  0  0  0  0  0  0999 V2000
   21.8471   11.5862   10.4959 N   0  0  0  0  0  0  0  0  0  0  0  0
   20.4303   11.3630   10.7577 C   0  0  0  0  0  0  0  0  0  0  0  0
   19.5763   12.5939   11.1419 C   0  0  1  0  0  0  0  0  0  0  0  0
   18.0597   12.1639   11.3501 C   0  0  0  0  0  0  0  0  0  0  0  0
   17.3550   12.7490   12.1782 O   0  0  0  0  0  0  0  0  0  0  0  0
   17.5593   11.1330   10.5658 N   0  0  0  0  0  0  0  0  0  0  0  0
   16.4124   10.3464   10.8464 C   0  0  0  0  0  0  0  0  0  0  0  0
   15.8114   10.3480   12.0922 C   0  0  0  0  0  0  0  0  0  0  0  0
   14.8461    9.4002   12.3733 C   0  0  0  0  0  0  0  0  0  0  0  0
   14.2025    9.5256   13.5332 F   0  0  0  0  0  0  0  0  0  0  0  0
   14.5083    8.4044   11.4615 C   0  0  0  0  0  0  0  0  0  0  0  0
   13.6061    7.4557   11.7501 F   0  0  0  0  0  0  0  0  0  0  0  0
   15.0163    8.4525   10.1906 C   0  0  0  0  0  0  0  0  0  0  0  0
   15.9123    9.4642    9.8637 C   0  0  0  0  0  0  0  0  0  0  0  0
   16.3685    9.4600    8.5553 N   0  0  0  0  0  0  0  0  0  0  0  0
   20.0767   13.2511   12.4406 C   0  0  0  0  0  0  0  0  0  0  0  0
   19.9575   14.7275   12.1794 C   0  0  0  0  0  0  0  0  0  0  0  0
   20.3338   14.7813   10.7282 C   0  0  0  0  0  0  0  0  0  0  0  0
   19.7549   13.6098   10.1342 O   0  0  0  0  0  0  0  0  0  0  0  0
  1  2  1  0
  3  2  1  6
  3  4  1  0
  4  5  2  0
  4  6  1  0
  6  7  1  0
  7  8  2  0
  8  9  1  0
  9 10  1  0
  9 11  2  0
 11 12  1  0
 11 13  1  0
 13 14  2  0
 14 15  1  0
  3 16  1  0
 16 17  1  0
 17 18  1  0
 18 19  1  0
 19  3  1  0
 14  7  1  0
M  END
>  <HIPPO ID>  (391) 
114394

>  <alias>  (391) 
None

>  <ref_mols>  (391) 
c0692a,c1116a

>  <submitter_email>  (391) 
None

>  <ref_pdb>  (391) 
c0270a

>  <inchikey>  (391) 
VYCZGXMENIXCOR-GFCCVEGCSA-N

>  <generation_date>  (391) 
None

>  <original ID>  (391) 
VYCZGXMENIXCOR-GFCCVEGCSA-N

>  <tags>  (391) 
[]

>  <exports>  (391) 
nan

>  <method>  (391) 
None

>  <submitter_name>  (391) 
None

>  <original SMILES>  (391) 
NC[C@@]1(C(=O)Nc2cc(F)c(F)cc2N)CCCO1

>  <ref_url>  (391) 
None

$$$$
ZSZIQXLMFIWCRX-LBPRGKRZSA-N
     RDKit          3D

 19 20  0  0  0  0  0  0  0  0999 V2000
   21.9743   11.5788   10.5293 N   0  0  0  0  0  0  0  0  0  0  0  0
   20.5350   11.3617   10.7041 C   0  0  0  0  0  0  0  0  0  0  0  0
   19.7160   12.5510   11.2652 C   0  0  2  0  0  0  0  0  0  0  0  0
   18.1538   12.2752   11.2630 C   0  0  0  0  0  0  0  0  0  0  0  0
   17.3732   13.0894   11.7665 O   0  0  0  0  0  0  0  0  0  0  0  0
   17.6876   11.1005   10.6823 N   0  0  0  0  0  0  0  0  0  0  0  0
   16.4818   10.4216   11.0218 C   0  0  0  0  0  0  0  0  0  0  0  0
   15.9576    9.4745   10.1173 C   0  0  0  0  0  0  0  0  0  0  0  0
   16.4471    9.3377    8.8329 N   0  0  0  0  0  0  0  0  0  0  0  0
   15.0733    8.4840   10.5529 C   0  0  0  0  0  0  0  0  0  0  0  0
   14.5775    8.5329   11.8353 C   0  0  0  0  0  0  0  0  0  0  0  0
   14.8883    9.6304   12.6230 C   0  0  0  0  0  0  0  0  0  0  0  0
   14.2209    9.8442   13.7558 F   0  0  0  0  0  0  0  0  0  0  0  0
   15.8723   10.5291   12.2622 C   0  0  0  0  0  0  0  0  0  0  0  0
   16.2933   11.3788   13.2032 F   0  0  0  0  0  0  0  0  0  0  0  0
   20.1218   13.9185   10.7067 C   0  0  0  0  0  0  0  0  0  0  0  0
   20.1032   14.8464   11.8948 C   0  0  0  0  0  0  0  0  0  0  0  0
   20.6171   13.9349   12.9656 C   0  0  0  0  0  0  0  0  0  0  0  0
   20.0454   12.6613   12.6761 O   0  0  0  0  0  0  0  0  0  0  0  0
  1  2  1  0
  3  2  1  6
  3  4  1  0
  4  5  2  0
  4  6  1  0
  6  7  1  0
  7  8  2  0
  8  9  1  0
  8 10  1  0
 10 11  2  0
 11 12  1  0
 12 13  1  0
 12 14  2  0
 14 15  1  0
  3 16  1  0
 16 17  1  0
 17 18  1  0
 18 19  1  0
 19  3  1  0
 14  7  1  0
M  END
>  <HIPPO ID>  (392) 
114414

>  <alias>  (392) 
None

>  <ref_mols>  (392) 
c0692a,c1116a

>  <submitter_email>  (392) 
None

>  <ref_pdb>  (392) 
c0270a

>  <inchikey>  (392) 
ZSZIQXLMFIWCRX-LBPRGKRZSA-N

>  <generation_date>  (392) 
None

>  <original ID>  (392) 
ZSZIQXLMFIWCRX-LBPRGKRZSA-N

>  <tags>  (392) 
[]

>  <exports>  (392) 
nan

>  <method>  (392) 
None

>  <submitter_name>  (392) 
None

>  <original SMILES>  (392) 
NC[C@]1(C(=O)Nc2c(N)ccc(F)c2F)CCCO1

>  <ref_url>  (392) 
None

$$$$
ZSZIQXLMFIWCRX-GFCCVEGCSA-N
     RDKit          3D

 19 20  0  0  0  0  0  0  0  0999 V2000
   21.9002   11.6345   10.5338 N   0  0  0  0  0  0  0  0  0  0  0  0
   20.4783   11.3579   10.7236 C   0  0  0  0  0  0  0  0  0  0  0  0
   19.6172   12.5737   11.1564 C   0  0  1  0  0  0  0  0  0  0  0  0
   18.0913   12.1782   11.3237 C   0  0  0  0  0  0  0  0  0  0  0  0
   17.3353   12.8752   12.0055 O   0  0  0  0  0  0  0  0  0  0  0  0
   17.6225   11.0824   10.6082 N   0  0  0  0  0  0  0  0  0  0  0  0
   16.4590   10.3202   10.9139 C   0  0  0  0  0  0  0  0  0  0  0  0
   15.9147    9.4643    9.9317 C   0  0  0  0  0  0  0  0  0  0  0  0
   16.3361    9.4685    8.6086 N   0  0  0  0  0  0  0  0  0  0  0  0
   15.0223    8.4463   10.2774 C   0  0  0  0  0  0  0  0  0  0  0  0
   14.5403    8.3693   11.5655 C   0  0  0  0  0  0  0  0  0  0  0  0
   14.9022    9.3601   12.4652 C   0  0  0  0  0  0  0  0  0  0  0  0
   14.2728    9.4636   13.6345 F   0  0  0  0  0  0  0  0  0  0  0  0
   15.8905   10.2804   12.1795 C   0  0  0  0  0  0  0  0  0  0  0  0
   16.3481   11.0102   13.2024 F   0  0  0  0  0  0  0  0  0  0  0  0
   20.1488   13.1886   12.4656 C   0  0  0  0  0  0  0  0  0  0  0  0
   21.0296   14.3303   12.0389 C   0  0  0  0  0  0  0  0  0  0  0  0
   20.3617   14.7788   10.7737 C   0  0  0  0  0  0  0  0  0  0  0  0
   19.7721   13.6207   10.1689 O   0  0  0  0  0  0  0  0  0  0  0  0
  1  2  1  0
  3  2  1  6
  3  4  1  0
  4  5  2  0
  4  6  1  0
  6  7  1  0
  7  8  2  0
  8  9  1  0
  8 10  1  0
 10 11  2  0
 11 12  1  0
 12 13  1  0
 12 14  2  0
 14 15  1  0
  3 16  1  0
 16 17  1  0
 17 18  1  0
 18 19  1  0
 19  3  1  0
 14  7  1  0
M  END
>  <HIPPO ID>  (393) 
114415

>  <alias>  (393) 
None

>  <ref_mols>  (393) 
c0692a,c1116a

>  <submitter_email>  (393) 
None

>  <ref_pdb>  (393) 
c0270a

>  <inchikey>  (393) 
ZSZIQXLMFIWCRX-GFCCVEGCSA-N

>  <generation_date>  (393) 
None

>  <original ID>  (393) 
ZSZIQXLMFIWCRX-GFCCVEGCSA-N

>  <tags>  (393) 
[]

>  <exports>  (393) 
nan

>  <method>  (393) 
None

>  <submitter_name>  (393) 
None

>  <original SMILES>  (393) 
NC[C@@]1(C(=O)Nc2c(N)ccc(F)c2F)CCCO1

>  <ref_url>  (393) 
None

$$$$
BHRSNQUXMRZTCB-CQSZACIVSA-N
     RDKit          3D

 19 20  0  0  0  0  0  0  0  0999 V2000
   14.3062    9.1650   13.9454 C   0  0  0  0  0  0  0  0  0  0  0  0
   14.9320    9.2466   12.5915 C   0  0  0  0  0  0  0  0  0  0  0  0
   14.6063    8.2771   11.6373 C   0  0  0  0  0  0  0  0  0  0  0  0
   15.0473    8.4202   10.3416 C   0  0  0  0  0  0  0  0  0  0  0  0
   15.8869    9.4792   10.0096 C   0  0  0  0  0  0  0  0  0  0  0  0
   16.3149    9.5063    8.6834 N   0  0  0  0  0  0  0  0  0  0  0  0
   16.3957   10.3529   11.0049 C   0  0  0  0  0  0  0  0  0  0  0  0
   17.5572   11.1155   10.6606 N   0  0  0  0  0  0  0  0  0  0  0  0
   18.0382   12.2766   11.2463 C   0  0  0  0  0  0  0  0  0  0  0  0
   17.2869   13.0924   11.7892 O   0  0  0  0  0  0  0  0  0  0  0  0
   19.5841   12.5999   11.1214 C   0  0  2  0  0  0  0  0  0  0  0  0
   20.4124   11.3615   10.7005 C   0  0  0  0  0  0  0  0  0  0  0  0
   21.8456   11.6037   10.5365 N   0  0  0  0  0  0  0  0  0  0  0  0
   20.0971   13.1784   12.4558 C   0  0  0  0  0  0  0  0  0  0  0  0
   20.9829   14.3337   12.0786 C   0  0  0  0  0  0  0  0  0  0  0  0
   20.3442   14.8120   10.8104 C   0  0  0  0  0  0  0  0  0  0  0  0
   19.8079   13.6552   10.1522 O   0  0  0  0  0  0  0  0  0  0  0  0
   15.8381   10.2899   12.2959 C   0  0  0  0  0  0  0  0  0  0  0  0
   16.1434   11.2741   13.3873 C   0  0  0  0  0  0  0  0  0  0  0  0
  1  2  1  0
  2  3  2  0
  3  4  1  0
  4  5  2  0
  5  6  1  0
  5  7  1  0
  7  8  1  0
  8  9  1  0
  9 10  2  0
  9 11  1  0
 11 12  1  6
 12 13  1  0
 11 14  1  0
 14 15  1  0
 15 16  1  0
 16 17  1  0
  7 18  2  0
 18 19  1  0
 18  2  1  0
 17 11  1  0
M  END
>  <HIPPO ID>  (394) 
114458

>  <alias>  (394) 
None

>  <ref_mols>  (394) 
c0692a,c1116a

>  <submitter_email>  (394) 
None

>  <ref_pdb>  (394) 
c0270a

>  <inchikey>  (394) 
BHRSNQUXMRZTCB-CQSZACIVSA-N

>  <generation_date>  (394) 
None

>  <original ID>  (394) 
BHRSNQUXMRZTCB-CQSZACIVSA-N

>  <tags>  (394) 
[]

>  <exports>  (394) 
nan

>  <method>  (394) 
None

>  <submitter_name>  (394) 
None

>  <original SMILES>  (394) 
Cc1ccc(N)c(NC(=O)[C@]2(CN)CCCO2)c1C

>  <ref_url>  (394) 
None

$$$$
BHRSNQUXMRZTCB-AWEZNQCLSA-N
     RDKit          3D

 19 20  0  0  0  0  0  0  0  0999 V2000
   14.3254    9.3429   13.9485 C   0  0  0  0  0  0  0  0  0  0  0  0
   14.9576    9.3610   12.5953 C   0  0  0  0  0  0  0  0  0  0  0  0
   14.6268    8.3577   11.6775 C   0  0  0  0  0  0  0  0  0  0  0  0
   15.0639    8.4519   10.3757 C   0  0  0  0  0  0  0  0  0  0  0  0
   15.9119    9.4912   10.0081 C   0  0  0  0  0  0  0  0  0  0  0  0
   16.3201    9.4892    8.6751 N   0  0  0  0  0  0  0  0  0  0  0  0
   16.4430   10.3816   10.9760 C   0  0  0  0  0  0  0  0  0  0  0  0
   17.6379   11.0864   10.6214 N   0  0  0  0  0  0  0  0  0  0  0  0
   18.1357   12.2713   11.1464 C   0  0  0  0  0  0  0  0  0  0  0  0
   17.3899   13.1397   11.6128 O   0  0  0  0  0  0  0  0  0  0  0  0
   19.7005   12.4986   11.1541 C   0  0  1  0  0  0  0  0  0  0  0  0
   20.5132   11.2775   10.6705 C   0  0  0  0  0  0  0  0  0  0  0  0
   21.9512   11.4848   10.4961 N   0  0  0  0  0  0  0  0  0  0  0  0
   20.1679   13.8292   10.5564 C   0  0  0  0  0  0  0  0  0  0  0  0
   21.1004   14.4295   11.5781 C   0  0  0  0  0  0  0  0  0  0  0  0
   20.4905   13.9486   12.8604 C   0  0  0  0  0  0  0  0  0  0  0  0
   19.9750   12.6522   12.5774 O   0  0  0  0  0  0  0  0  0  0  0  0
   15.8804   10.3783   12.2646 C   0  0  0  0  0  0  0  0  0  0  0  0
   16.2057   11.3991   13.3152 C   0  0  0  0  0  0  0  0  0  0  0  0
  1  2  1  0
  2  3  2  0
  3  4  1  0
  4  5  2  0
  5  6  1  0
  5  7  1  0
  7  8  1  0
  8  9  1  0
  9 10  2  0
  9 11  1  0
 11 12  1  6
 12 13  1  0
 11 14  1  0
 14 15  1  0
 15 16  1  0
 16 17  1  0
  7 18  2  0
 18 19  1  0
 18  2  1  0
 17 11  1  0
M  END
>  <HIPPO ID>  (395) 
114459

>  <alias>  (395) 
None

>  <ref_mols>  (395) 
c0692a,c1116a

>  <submitter_email>  (395) 
None

>  <ref_pdb>  (395) 
c0270a

>  <inchikey>  (395) 
BHRSNQUXMRZTCB-AWEZNQCLSA-N

>  <generation_date>  (395) 
None

>  <original ID>  (395) 
BHRSNQUXMRZTCB-AWEZNQCLSA-N

>  <tags>  (395) 
[]

>  <exports>  (395) 
nan

>  <method>  (395) 
None

>  <submitter_name>  (395) 
None

>  <original SMILES>  (395) 
Cc1ccc(N)c(NC(=O)[C@@]2(CN)CCCO2)c1C

>  <ref_url>  (395) 
None

$$$$
QZPZPVSDAVZMNH-LBPRGKRZSA-N
     RDKit          3D

 19 20  0  0  0  0  0  0  0  0999 V2000
   21.9053   11.6695   10.5905 N   0  0  0  0  0  0  0  0  0  0  0  0
   20.4778   11.3915   10.7301 C   0  0  0  0  0  0  0  0  0  0  0  0
   19.6536   12.5599   11.3125 C   0  0  2  0  0  0  0  0  0  0  0  0
   18.0989   12.2245   11.3456 C   0  0  0  0  0  0  0  0  0  0  0  0
   17.3333   12.8903   12.0516 O   0  0  0  0  0  0  0  0  0  0  0  0
   17.6231   11.1552   10.5845 N   0  0  0  0  0  0  0  0  0  0  0  0
   16.4652   10.3773   10.8678 C   0  0  0  0  0  0  0  0  0  0  0  0
   15.9219   10.3460   12.1383 C   0  0  0  0  0  0  0  0  0  0  0  0
   15.0192    9.3410   12.4865 C   0  0  0  0  0  0  0  0  0  0  0  0
   14.3717    9.4722   14.2416 Br  0  0  0  0  0  0  0  0  0  0  0  0
   14.6598    8.3432   11.5768 C   0  0  0  0  0  0  0  0  0  0  0  0
   13.7184    6.9438   11.9519 Cl  0  0  0  0  0  0  0  0  0  0  0  0
   15.0806    8.4635   10.2695 C   0  0  0  0  0  0  0  0  0  0  0  0
   15.9311    9.5038    9.9021 C   0  0  0  0  0  0  0  0  0  0  0  0
   16.3380    9.4960    8.5770 N   0  0  0  0  0  0  0  0  0  0  0  0
   20.0187   13.9312   10.7460 C   0  0  0  0  0  0  0  0  0  0  0  0
   19.8992   14.8735   11.9143 C   0  0  0  0  0  0  0  0  0  0  0  0
   20.4607   14.0199   13.0081 C   0  0  0  0  0  0  0  0  0  0  0  0
   20.0567   12.6831   12.7046 O   0  0  0  0  0  0  0  0  0  0  0  0
  1  2  1  0
  3  2  1  6
  3  4  1  0
  4  5  2  0
  4  6  1  0
  6  7  1  0
  7  8  2  0
  8  9  1  0
  9 10  1  0
  9 11  2  0
 11 12  1  0
 11 13  1  0
 13 14  2  0
 14 15  1  0
  3 16  1  0
 16 17  1  0
 17 18  1  0
 18 19  1  0
 19  3  1  0
 14  7  1  0
M  END
>  <HIPPO ID>  (396) 
114475

>  <alias>  (396) 
None

>  <ref_mols>  (396) 
c0692a,c1116a

>  <submitter_email>  (396) 
None

>  <ref_pdb>  (396) 
c0270a

>  <inchikey>  (396) 
QZPZPVSDAVZMNH-LBPRGKRZSA-N

>  <generation_date>  (396) 
None

>  <original ID>  (396) 
QZPZPVSDAVZMNH-LBPRGKRZSA-N

>  <tags>  (396) 
[]

>  <exports>  (396) 
nan

>  <method>  (396) 
None

>  <submitter_name>  (396) 
None

>  <original SMILES>  (396) 
NC[C@]1(C(=O)Nc2cc(Br)c(Cl)cc2N)CCCO1

>  <ref_url>  (396) 
None

$$$$
QZPZPVSDAVZMNH-GFCCVEGCSA-N
     RDKit          3D

 19 20  0  0  0  0  0  0  0  0999 V2000
   21.8876   11.6453   10.5128 N   0  0  0  0  0  0  0  0  0  0  0  0
   20.4713   11.3467   10.7316 C   0  0  0  0  0  0  0  0  0  0  0  0
   19.6022   12.5665   11.1284 C   0  0  1  0  0  0  0  0  0  0  0  0
   18.0879   12.1348   11.3475 C   0  0  0  0  0  0  0  0  0  0  0  0
   17.3892   12.7109   12.1873 O   0  0  0  0  0  0  0  0  0  0  0  0
   17.5747   11.1147   10.5542 N   0  0  0  0  0  0  0  0  0  0  0  0
   16.4374   10.3150   10.8488 C   0  0  0  0  0  0  0  0  0  0  0  0
   15.9040   10.2564   12.1229 C   0  0  0  0  0  0  0  0  0  0  0  0
   15.0002    9.2501   12.4595 C   0  0  0  0  0  0  0  0  0  0  0  0
   14.3693    9.3545   14.2238 Br  0  0  0  0  0  0  0  0  0  0  0  0
   14.6275    8.2753   11.5318 C   0  0  0  0  0  0  0  0  0  0  0  0
   13.6688    6.8828   11.8865 Cl  0  0  0  0  0  0  0  0  0  0  0  0
   15.0466    8.4164   10.2247 C   0  0  0  0  0  0  0  0  0  0  0  0
   15.9031    9.4574    9.8722 C   0  0  0  0  0  0  0  0  0  0  0  0
   16.3266    9.4679    8.5519 N   0  0  0  0  0  0  0  0  0  0  0  0
   20.1247   13.2207   12.4219 C   0  0  0  0  0  0  0  0  0  0  0  0
   20.0439   14.6984   12.1545 C   0  0  0  0  0  0  0  0  0  0  0  0
   20.3936   14.7367   10.6965 C   0  0  0  0  0  0  0  0  0  0  0  0
   19.7540   13.5879   10.1186 O   0  0  0  0  0  0  0  0  0  0  0  0
  1  2  1  0
  3  2  1  6
  3  4  1  0
  4  5  2  0
  4  6  1  0
  6  7  1  0
  7  8  2  0
  8  9  1  0
  9 10  1  0
  9 11  2  0
 11 12  1  0
 11 13  1  0
 13 14  2  0
 14 15  1  0
  3 16  1  0
 16 17  1  0
 17 18  1  0
 18 19  1  0
 19  3  1  0
 14  7  1  0
M  END
>  <HIPPO ID>  (397) 
114476

>  <alias>  (397) 
None

>  <ref_mols>  (397) 
c0692a,c1116a

>  <submitter_email>  (397) 
None

>  <ref_pdb>  (397) 
c0270a

>  <inchikey>  (397) 
QZPZPVSDAVZMNH-GFCCVEGCSA-N

>  <generation_date>  (397) 
None

>  <original ID>  (397) 
QZPZPVSDAVZMNH-GFCCVEGCSA-N

>  <tags>  (397) 
[]

>  <exports>  (397) 
nan

>  <method>  (397) 
None

>  <submitter_name>  (397) 
None

>  <original SMILES>  (397) 
NC[C@@]1(C(=O)Nc2cc(Br)c(Cl)cc2N)CCCO1

>  <ref_url>  (397) 
None

$$$$
YOGZFICUCJQXEC-LBPRGKRZSA-N
     RDKit          3D

 19 20  0  0  0  0  0  0  0  0999 V2000
   21.9405   11.5828   10.5143 N   0  0  0  0  0  0  0  0  0  0  0  0
   20.5073   11.3469   10.7068 C   0  0  0  0  0  0  0  0  0  0  0  0
   19.6808   12.5275   11.2764 C   0  0  2  0  0  0  0  0  0  0  0  0
   18.1205   12.2078   11.3154 C   0  0  0  0  0  0  0  0  0  0  0  0
   17.3578   12.8920   12.0066 O   0  0  0  0  0  0  0  0  0  0  0  0
   17.6355   11.1311   10.5727 N   0  0  0  0  0  0  0  0  0  0  0  0
   16.4687   10.3677   10.8606 C   0  0  0  0  0  0  0  0  0  0  0  0
   15.9052   10.3573   12.1235 C   0  0  0  0  0  0  0  0  0  0  0  0
   14.9982    9.3555   12.4735 C   0  0  0  0  0  0  0  0  0  0  0  0
   14.3543    9.4985   14.0498 Cl  0  0  0  0  0  0  0  0  0  0  0  0
   14.6656    8.3359   11.5756 C   0  0  0  0  0  0  0  0  0  0  0  0
   13.6717    6.7693   11.9930 Br  0  0  0  0  0  0  0  0  0  0  0  0
   15.0971    8.4429   10.2699 C   0  0  0  0  0  0  0  0  0  0  0  0
   15.9455    9.4827    9.8996 C   0  0  0  0  0  0  0  0  0  0  0  0
   16.3626    9.4675    8.5769 N   0  0  0  0  0  0  0  0  0  0  0  0
   20.0588   13.8966   10.7124 C   0  0  0  0  0  0  0  0  0  0  0  0
   20.0116   14.8327   11.8923 C   0  0  0  0  0  0  0  0  0  0  0  0
   20.5667   13.9471   12.9630 C   0  0  0  0  0  0  0  0  0  0  0  0
   20.0455   12.6502   12.6795 O   0  0  0  0  0  0  0  0  0  0  0  0
  1  2  1  0
  3  2  1  6
  3  4  1  0
  4  5  2  0
  4  6  1  0
  6  7  1  0
  7  8  2  0
  8  9  1  0
  9 10  1  0
  9 11  2  0
 11 12  1  0
 11 13  1  0
 13 14  2  0
 14 15  1  0
  3 16  1  0
 16 17  1  0
 17 18  1  0
 18 19  1  0
 19  3  1  0
 14  7  1  0
M  END
>  <HIPPO ID>  (398) 
114477

>  <alias>  (398) 
None

>  <ref_mols>  (398) 
c0692a,c1116a

>  <submitter_email>  (398) 
None

>  <ref_pdb>  (398) 
c0270a

>  <inchikey>  (398) 
YOGZFICUCJQXEC-LBPRGKRZSA-N

>  <generation_date>  (398) 
None

>  <original ID>  (398) 
YOGZFICUCJQXEC-LBPRGKRZSA-N

>  <tags>  (398) 
[]

>  <exports>  (398) 
nan

>  <method>  (398) 
None

>  <submitter_name>  (398) 
None

>  <original SMILES>  (398) 
NC[C@]1(C(=O)Nc2cc(Cl)c(Br)cc2N)CCCO1

>  <ref_url>  (398) 
None

$$$$
YOGZFICUCJQXEC-GFCCVEGCSA-N
     RDKit          3D

 19 20  0  0  0  0  0  0  0  0999 V2000
   21.8093   11.5754   10.5093 N   0  0  0  0  0  0  0  0  0  0  0  0
   20.3869   11.3690   10.7583 C   0  0  0  0  0  0  0  0  0  0  0  0
   19.5460   12.6065   11.1509 C   0  0  1  0  0  0  0  0  0  0  0  0
   18.0232   12.1988   11.3684 C   0  0  0  0  0  0  0  0  0  0  0  0
   17.3174   12.8252   12.1657 O   0  0  0  0  0  0  0  0  0  0  0  0
   17.5106   11.1471   10.6258 N   0  0  0  0  0  0  0  0  0  0  0  0
   16.3750   10.3600   10.9555 C   0  0  0  0  0  0  0  0  0  0  0  0
   15.8117   10.3640   12.2179 C   0  0  0  0  0  0  0  0  0  0  0  0
   14.9314    9.3483   12.5904 C   0  0  0  0  0  0  0  0  0  0  0  0
   14.2876    9.5068   14.1642 Cl  0  0  0  0  0  0  0  0  0  0  0  0
   14.6167    8.3071   11.7135 C   0  0  0  0  0  0  0  0  0  0  0  0
   13.6276    6.7431   12.1521 Br  0  0  0  0  0  0  0  0  0  0  0  0
   15.0511    8.3945   10.4084 C   0  0  0  0  0  0  0  0  0  0  0  0
   15.8868    9.4397   10.0170 C   0  0  0  0  0  0  0  0  0  0  0  0
   16.3839    9.3758    8.7367 N   0  0  0  0  0  0  0  0  0  0  0  0
   20.0550   13.2549   12.4508 C   0  0  0  0  0  0  0  0  0  0  0  0
   19.9599   14.7338   12.1928 C   0  0  0  0  0  0  0  0  0  0  0  0
   20.3330   14.7853   10.7411 C   0  0  0  0  0  0  0  0  0  0  0  0
   19.7342   13.6248   10.1466 O   0  0  0  0  0  0  0  0  0  0  0  0
  1  2  1  0
  3  2  1  6
  3  4  1  0
  4  5  2  0
  4  6  1  0
  6  7  1  0
  7  8  2  0
  8  9  1  0
  9 10  1  0
  9 11  2  0
 11 12  1  0
 11 13  1  0
 13 14  2  0
 14 15  1  0
  3 16  1  0
 16 17  1  0
 17 18  1  0
 18 19  1  0
 19  3  1  0
 14  7  1  0
M  END
>  <HIPPO ID>  (399) 
114478

>  <alias>  (399) 
None

>  <ref_mols>  (399) 
c0692a,c1116a

>  <submitter_email>  (399) 
None

>  <ref_pdb>  (399) 
c0270a

>  <inchikey>  (399) 
YOGZFICUCJQXEC-GFCCVEGCSA-N

>  <generation_date>  (399) 
None

>  <original ID>  (399) 
YOGZFICUCJQXEC-GFCCVEGCSA-N

>  <tags>  (399) 
[]

>  <exports>  (399) 
nan

>  <method>  (399) 
None

>  <submitter_name>  (399) 
None

>  <original SMILES>  (399) 
NC[C@@]1(C(=O)Nc2cc(Cl)c(Br)cc2N)CCCO1

>  <ref_url>  (399) 
None

$$$$
RYIXYTCGRBBTNZ-LBPRGKRZSA-N
     RDKit          3D

 19 20  0  0  0  0  0  0  0  0999 V2000
   21.9083   11.6704   10.5757 N   0  0  0  0  0  0  0  0  0  0  0  0
   20.4830   11.3849   10.7252 C   0  0  0  0  0  0  0  0  0  0  0  0
   19.6567   12.5489   11.3131 C   0  0  2  0  0  0  0  0  0  0  0  0
   18.1028   12.2050   11.3513 C   0  0  0  0  0  0  0  0  0  0  0  0
   17.3406   12.8561   12.0744 O   0  0  0  0  0  0  0  0  0  0  0  0
   17.6266   11.1439   10.5776 N   0  0  0  0  0  0  0  0  0  0  0  0
   16.4734   10.3558   10.8566 C   0  0  0  0  0  0  0  0  0  0  0  0
   15.9480   10.2971   12.1330 C   0  0  0  0  0  0  0  0  0  0  0  0
   15.0568    9.2781   12.4823 C   0  0  0  0  0  0  0  0  0  0  0  0
   14.4712    9.3526   14.4447 I   0  0  0  0  0  0  0  0  0  0  0  0
   14.6657    8.3117   11.5521 C   0  0  0  0  0  0  0  0  0  0  0  0
   13.7120    6.9106   11.8953 Cl  0  0  0  0  0  0  0  0  0  0  0  0
   15.0713    8.4584   10.2422 C   0  0  0  0  0  0  0  0  0  0  0  0
   15.9348    9.4923    9.8859 C   0  0  0  0  0  0  0  0  0  0  0  0
   16.3501    9.4835    8.5632 N   0  0  0  0  0  0  0  0  0  0  0  0
   20.0125   13.9228   10.7477 C   0  0  0  0  0  0  0  0  0  0  0  0
   19.9020   14.8616   11.9198 C   0  0  0  0  0  0  0  0  0  0  0  0
   20.4784   14.0067   13.0045 C   0  0  0  0  0  0  0  0  0  0  0  0
   20.0698   12.6710   12.7028 O   0  0  0  0  0  0  0  0  0  0  0  0
  1  2  1  0
  3  2  1  6
  3  4  1  0
  4  5  2  0
  4  6  1  0
  6  7  1  0
  7  8  2  0
  8  9  1  0
  9 10  1  0
  9 11  2  0
 11 12  1  0
 11 13  1  0
 13 14  2  0
 14 15  1  0
  3 16  1  0
 16 17  1  0
 17 18  1  0
 18 19  1  0
 19  3  1  0
 14  7  1  0
M  END
>  <HIPPO ID>  (400) 
114484

>  <alias>  (400) 
None

>  <ref_mols>  (400) 
c0692a,c1116a

>  <submitter_email>  (400) 
None

>  <ref_pdb>  (400) 
c0270a

>  <inchikey>  (400) 
RYIXYTCGRBBTNZ-LBPRGKRZSA-N

>  <generation_date>  (400) 
None

>  <original ID>  (400) 
RYIXYTCGRBBTNZ-LBPRGKRZSA-N

>  <tags>  (400) 
[]

>  <exports>  (400) 
nan

>  <method>  (400) 
None

>  <submitter_name>  (400) 
None

>  <original SMILES>  (400) 
NC[C@]1(C(=O)Nc2cc(I)c(Cl)cc2N)CCCO1

>  <ref_url>  (400) 
None

$$$$
RYIXYTCGRBBTNZ-GFCCVEGCSA-N
     RDKit          3D

 19 20  0  0  0  0  0  0  0  0999 V2000
   21.8076   11.7152   10.3310 N   0  0  0  0  0  0  0  0  0  0  0  0
   20.4366   11.3729   10.6995 C   0  0  0  0  0  0  0  0  0  0  0  0
   19.5670   12.5558   11.2102 C   0  0  1  0  0  0  0  0  0  0  0  0
   18.0767   12.0812   11.4733 C   0  0  0  0  0  0  0  0  0  0  0  0
   17.4327   12.5551   12.4143 O   0  0  0  0  0  0  0  0  0  0  0  0
   17.5259   11.1346   10.6107 N   0  0  0  0  0  0  0  0  0  0  0  0
   16.4090   10.2942   10.8805 C   0  0  0  0  0  0  0  0  0  0  0  0
   15.8958   10.1642   12.1580 C   0  0  0  0  0  0  0  0  0  0  0  0
   15.0091    9.1315   12.4705 C   0  0  0  0  0  0  0  0  0  0  0  0
   14.4299    9.1327   14.4404 I   0  0  0  0  0  0  0  0  0  0  0  0
   14.6097    8.2122   11.5003 C   0  0  0  0  0  0  0  0  0  0  0  0
   13.6330    6.8157   11.7875 Cl  0  0  0  0  0  0  0  0  0  0  0  0
   15.0152    8.4156   10.1966 C   0  0  0  0  0  0  0  0  0  0  0  0
   15.8742    9.4678    9.8775 C   0  0  0  0  0  0  0  0  0  0  0  0
   16.3044    9.5008    8.5602 N   0  0  0  0  0  0  0  0  0  0  0  0
   20.1753   13.1809   12.4786 C   0  0  0  0  0  0  0  0  0  0  0  0
   21.0606   14.2937   11.9909 C   0  0  0  0  0  0  0  0  0  0  0  0
   20.3625   14.7296   10.7359 C   0  0  0  0  0  0  0  0  0  0  0  0
   19.5956   13.6233   10.2453 O   0  0  0  0  0  0  0  0  0  0  0  0
  1  2  1  0
  3  2  1  6
  3  4  1  0
  4  5  2  0
  4  6  1  0
  6  7  1  0
  7  8  2  0
  8  9  1  0
  9 10  1  0
  9 11  2  0
 11 12  1  0
 11 13  1  0
 13 14  2  0
 14 15  1  0
  3 16  1  0
 16 17  1  0
 17 18  1  0
 18 19  1  0
 19  3  1  0
 14  7  1  0
M  END
>  <HIPPO ID>  (401) 
114485

>  <alias>  (401) 
None

>  <ref_mols>  (401) 
c0692a,c1116a

>  <submitter_email>  (401) 
None

>  <ref_pdb>  (401) 
c0270a

>  <inchikey>  (401) 
RYIXYTCGRBBTNZ-GFCCVEGCSA-N

>  <generation_date>  (401) 
None

>  <original ID>  (401) 
RYIXYTCGRBBTNZ-GFCCVEGCSA-N

>  <tags>  (401) 
[]

>  <exports>  (401) 
nan

>  <method>  (401) 
None

>  <submitter_name>  (401) 
None

>  <original SMILES>  (401) 
NC[C@@]1(C(=O)Nc2cc(I)c(Cl)cc2N)CCCO1

>  <ref_url>  (401) 
None

$$$$
VZWQKSMBJSBKQE-LBPRGKRZSA-N
     RDKit          3D

 19 20  0  0  0  0  0  0  0  0999 V2000
   21.8746   11.3477   10.7719 N   0  0  0  0  0  0  0  0  0  0  0  0
   20.4236   11.2713   10.7422 C   0  0  0  0  0  0  0  0  0  0  0  0
   19.6500   12.4992   11.2412 C   0  0  2  0  0  0  0  0  0  0  0  0
   18.0875   12.2130   11.2951 C   0  0  0  0  0  0  0  0  0  0  0  0
   17.3478   12.9105   11.9967 O   0  0  0  0  0  0  0  0  0  0  0  0
   17.5844   11.1478   10.5503 N   0  0  0  0  0  0  0  0  0  0  0  0
   16.4279   10.3751   10.8487 C   0  0  0  0  0  0  0  0  0  0  0  0
   15.8753   10.3519   12.1154 C   0  0  0  0  0  0  0  0  0  0  0  0
   14.9908    9.3295   12.4714 C   0  0  0  0  0  0  0  0  0  0  0  0
   14.3649    9.4626   14.0564 Cl  0  0  0  0  0  0  0  0  0  0  0  0
   14.6683    8.3064   11.5719 C   0  0  0  0  0  0  0  0  0  0  0  0
   13.6321    6.5264   12.0128 I   0  0  0  0  0  0  0  0  0  0  0  0
   15.0832    8.4324   10.2605 C   0  0  0  0  0  0  0  0  0  0  0  0
   15.9087    9.4897    9.8874 C   0  0  0  0  0  0  0  0  0  0  0  0
   16.3247    9.4851    8.5646 N   0  0  0  0  0  0  0  0  0  0  0  0
   20.1020   13.7994   10.5809 C   0  0  0  0  0  0  0  0  0  0  0  0
   20.9915   14.4959   11.5825 C   0  0  0  0  0  0  0  0  0  0  0  0
   20.3968   14.0352   12.8784 C   0  0  0  0  0  0  0  0  0  0  0  0
   20.0316   12.6819   12.6328 O   0  0  0  0  0  0  0  0  0  0  0  0
  1  2  1  0
  3  2  1  6
  3  4  1  0
  4  5  2  0
  4  6  1  0
  6  7  1  0
  7  8  2  0
  8  9  1  0
  9 10  1  0
  9 11  2  0
 11 12  1  0
 11 13  1  0
 13 14  2  0
 14 15  1  0
  3 16  1  0
 16 17  1  0
 17 18  1  0
 18 19  1  0
 19  3  1  0
 14  7  1  0
M  END
>  <HIPPO ID>  (402) 
114486

>  <alias>  (402) 
None

>  <ref_mols>  (402) 
c0692a,c1116a

>  <submitter_email>  (402) 
None

>  <ref_pdb>  (402) 
c0270a

>  <inchikey>  (402) 
VZWQKSMBJSBKQE-LBPRGKRZSA-N

>  <generation_date>  (402) 
None

>  <original ID>  (402) 
VZWQKSMBJSBKQE-LBPRGKRZSA-N

>  <tags>  (402) 
[]

>  <exports>  (402) 
nan

>  <method>  (402) 
None

>  <submitter_name>  (402) 
None

>  <original SMILES>  (402) 
NC[C@]1(C(=O)Nc2cc(Cl)c(I)cc2N)CCCO1

>  <ref_url>  (402) 
None

$$$$
VZWQKSMBJSBKQE-GFCCVEGCSA-N
     RDKit          3D

 19 20  0  0  0  0  0  0  0  0999 V2000
   21.8014   11.5640   10.5013 N   0  0  0  0  0  0  0  0  0  0  0  0
   20.3796   11.3593   10.7563 C   0  0  0  0  0  0  0  0  0  0  0  0
   19.5411   12.5967   11.1553 C   0  0  1  0  0  0  0  0  0  0  0  0
   18.0188   12.1845   11.3844 C   0  0  0  0  0  0  0  0  0  0  0  0
   17.3236   12.7966   12.2016 O   0  0  0  0  0  0  0  0  0  0  0  0
   17.4997   11.1416   10.6332 N   0  0  0  0  0  0  0  0  0  0  0  0
   16.3679   10.3459   10.9603 C   0  0  0  0  0  0  0  0  0  0  0  0
   15.8001   10.3394   12.2209 C   0  0  0  0  0  0  0  0  0  0  0  0
   14.9283    9.3125   12.5913 C   0  0  0  0  0  0  0  0  0  0  0  0
   14.2894    9.4671   14.1683 Cl  0  0  0  0  0  0  0  0  0  0  0  0
   14.6226    8.2712   11.7103 C   0  0  0  0  0  0  0  0  0  0  0  0
   13.5756    6.5005   12.1668 I   0  0  0  0  0  0  0  0  0  0  0  0
   15.0565    8.3730   10.4041 C   0  0  0  0  0  0  0  0  0  0  0  0
   15.8876    9.4254   10.0184 C   0  0  0  0  0  0  0  0  0  0  0  0
   16.3972    9.3607    8.7416 N   0  0  0  0  0  0  0  0  0  0  0  0
   20.0623   13.2432   12.4516 C   0  0  0  0  0  0  0  0  0  0  0  0
   19.9795   14.7224   12.1926 C   0  0  0  0  0  0  0  0  0  0  0  0
   20.3423   14.7691   10.7385 C   0  0  0  0  0  0  0  0  0  0  0  0
   19.7260   13.6145   10.1504 O   0  0  0  0  0  0  0  0  0  0  0  0
  1  2  1  0
  3  2  1  6
  3  4  1  0
  4  5  2  0
  4  6  1  0
  6  7  1  0
  7  8  2  0
  8  9  1  0
  9 10  1  0
  9 11  2  0
 11 12  1  0
 11 13  1  0
 13 14  2  0
 14 15  1  0
  3 16  1  0
 16 17  1  0
 17 18  1  0
 18 19  1  0
 19  3  1  0
 14  7  1  0
M  END
>  <HIPPO ID>  (403) 
114487

>  <alias>  (403) 
None

>  <ref_mols>  (403) 
c0692a,c1116a

>  <submitter_email>  (403) 
None

>  <ref_pdb>  (403) 
c0270a

>  <inchikey>  (403) 
VZWQKSMBJSBKQE-GFCCVEGCSA-N

>  <generation_date>  (403) 
None

>  <original ID>  (403) 
VZWQKSMBJSBKQE-GFCCVEGCSA-N

>  <tags>  (403) 
[]

>  <exports>  (403) 
nan

>  <method>  (403) 
None

>  <submitter_name>  (403) 
None

>  <original SMILES>  (403) 
NC[C@@]1(C(=O)Nc2cc(Cl)c(I)cc2N)CCCO1

>  <ref_url>  (403) 
None

$$$$
XJEXIBUHVWXUEG-LBPRGKRZSA-N
     RDKit          3D

 19 20  0  0  0  0  0  0  0  0999 V2000
   21.9331   11.5632   10.5685 N   0  0  0  0  0  0  0  0  0  0  0  0
   20.4890   11.3644   10.7111 C   0  0  0  0  0  0  0  0  0  0  0  0
   19.6673   12.5637   11.2475 C   0  0  2  0  0  0  0  0  0  0  0  0
   18.1037   12.2988   11.2047 C   0  0  0  0  0  0  0  0  0  0  0  0
   17.3155   13.1529   11.6195 O   0  0  0  0  0  0  0  0  0  0  0  0
   17.6495   11.0942   10.6786 N   0  0  0  0  0  0  0  0  0  0  0  0
   16.4383   10.3978   10.9893 C   0  0  0  0  0  0  0  0  0  0  0  0
   15.9289    9.5117    9.9991 C   0  0  0  0  0  0  0  0  0  0  0  0
   16.3571    9.5175    8.6776 N   0  0  0  0  0  0  0  0  0  0  0  0
   15.0613    8.4686   10.3238 C   0  0  0  0  0  0  0  0  0  0  0  0
   14.5538    8.3885   11.5947 C   0  0  0  0  0  0  0  0  0  0  0  0
   14.8460    9.4124   12.4846 C   0  0  0  0  0  0  0  0  0  0  0  0
   14.1491    9.4790   13.6209 F   0  0  0  0  0  0  0  0  0  0  0  0
   15.8044   10.3911   12.2318 C   0  0  0  0  0  0  0  0  0  0  0  0
   16.1955   11.4732   13.7354 Br  0  0  0  0  0  0  0  0  0  0  0  0
   20.1106   13.9253   10.6987 C   0  0  0  0  0  0  0  0  0  0  0  0
   20.0813   14.8554   11.8844 C   0  0  0  0  0  0  0  0  0  0  0  0
   20.5487   13.9347   12.9677 C   0  0  0  0  0  0  0  0  0  0  0  0
   19.9447   12.6775   12.6691 O   0  0  0  0  0  0  0  0  0  0  0  0
  1  2  1  0
  3  2  1  6
  3  4  1  0
  4  5  2  0
  4  6  1  0
  6  7  1  0
  7  8  2  0
  8  9  1  0
  8 10  1  0
 10 11  2  0
 11 12  1  0
 12 13  1  0
 12 14  2  0
 14 15  1  0
  3 16  1  0
 16 17  1  0
 17 18  1  0
 18 19  1  0
 19  3  1  0
 14  7  1  0
M  END
>  <HIPPO ID>  (404) 
114492

>  <alias>  (404) 
None

>  <ref_mols>  (404) 
c0692a,c1116a

>  <submitter_email>  (404) 
None

>  <ref_pdb>  (404) 
c0270a

>  <inchikey>  (404) 
XJEXIBUHVWXUEG-LBPRGKRZSA-N

>  <generation_date>  (404) 
None

>  <original ID>  (404) 
XJEXIBUHVWXUEG-LBPRGKRZSA-N

>  <tags>  (404) 
[]

>  <exports>  (404) 
nan

>  <method>  (404) 
None

>  <submitter_name>  (404) 
None

>  <original SMILES>  (404) 
NC[C@]1(C(=O)Nc2c(N)ccc(F)c2Br)CCCO1

>  <ref_url>  (404) 
None

$$$$
XJEXIBUHVWXUEG-GFCCVEGCSA-N
     RDKit          3D

 19 20  0  0  0  0  0  0  0  0999 V2000
   21.8484   11.7027   10.4632 N   0  0  0  0  0  0  0  0  0  0  0  0
   20.4354   11.4154   10.7045 C   0  0  0  0  0  0  0  0  0  0  0  0
   19.5815   12.6259   11.1627 C   0  0  1  0  0  0  0  0  0  0  0  0
   18.0461   12.2801   11.2955 C   0  0  0  0  0  0  0  0  0  0  0  0
   17.2675   13.1087   11.7748 O   0  0  0  0  0  0  0  0  0  0  0  0
   17.5972   11.0776   10.7794 N   0  0  0  0  0  0  0  0  0  0  0  0
   16.3996   10.3718   11.1102 C   0  0  0  0  0  0  0  0  0  0  0  0
   15.9270    9.4514   10.1360 C   0  0  0  0  0  0  0  0  0  0  0  0
   16.4737    9.3862    8.8678 N   0  0  0  0  0  0  0  0  0  0  0  0
   15.0497    8.4172   10.4706 C   0  0  0  0  0  0  0  0  0  0  0  0
   14.5213    8.3660   11.7333 C   0  0  0  0  0  0  0  0  0  0  0  0
   14.7969    9.4089   12.6050 C   0  0  0  0  0  0  0  0  0  0  0  0
   14.0853    9.4927   13.7307 F   0  0  0  0  0  0  0  0  0  0  0  0
   15.7551   10.3845   12.3468 C   0  0  0  0  0  0  0  0  0  0  0  0
   16.1507   11.4588   13.8551 Br  0  0  0  0  0  0  0  0  0  0  0  0
   20.0991   13.2057   12.4896 C   0  0  0  0  0  0  0  0  0  0  0  0
   20.9759   14.3654   12.1042 C   0  0  0  0  0  0  0  0  0  0  0  0
   20.3265   14.8451   10.8407 C   0  0  0  0  0  0  0  0  0  0  0  0
   19.7395   13.7028   10.2051 O   0  0  0  0  0  0  0  0  0  0  0  0
  1  2  1  0
  3  2  1  6
  3  4  1  0
  4  5  2  0
  4  6  1  0
  6  7  1  0
  7  8  2  0
  8  9  1  0
  8 10  1  0
 10 11  2  0
 11 12  1  0
 12 13  1  0
 12 14  2  0
 14 15  1  0
  3 16  1  0
 16 17  1  0
 17 18  1  0
 18 19  1  0
 19  3  1  0
 14  7  1  0
M  END
>  <HIPPO ID>  (405) 
114493

>  <alias>  (405) 
None

>  <ref_mols>  (405) 
c0692a,c1116a

>  <submitter_email>  (405) 
None

>  <ref_pdb>  (405) 
c0270a

>  <inchikey>  (405) 
XJEXIBUHVWXUEG-GFCCVEGCSA-N

>  <generation_date>  (405) 
None

>  <original ID>  (405) 
XJEXIBUHVWXUEG-GFCCVEGCSA-N

>  <tags>  (405) 
[]

>  <exports>  (405) 
nan

>  <method>  (405) 
None

>  <submitter_name>  (405) 
None

>  <original SMILES>  (405) 
NC[C@@]1(C(=O)Nc2c(N)ccc(F)c2Br)CCCO1

>  <ref_url>  (405) 
None

$$$$
SSOBASGTRAZSEX-LBPRGKRZSA-N
     RDKit          3D

 19 20  0  0  0  0  0  0  0  0999 V2000
   22.1124   11.6304   10.5201 N   0  0  0  0  0  0  0  0  0  0  0  0
   20.6806   11.3811   10.7061 C   0  0  0  0  0  0  0  0  0  0  0  0
   19.8381   12.5682   11.2383 C   0  0  2  0  0  0  0  0  0  0  0  0
   18.2893   12.2802   11.2008 C   0  0  0  0  0  0  0  0  0  0  0  0
   17.4915   13.0603   11.7386 O   0  0  0  0  0  0  0  0  0  0  0  0
   17.8502   11.1260   10.5693 N   0  0  0  0  0  0  0  0  0  0  0  0
   16.6365   10.4283   10.8037 C   0  0  0  0  0  0  0  0  0  0  0  0
   16.1882    9.5761    9.7760 C   0  0  0  0  0  0  0  0  0  0  0  0
   15.1574    8.6674    9.9779 C   0  0  0  0  0  0  0  0  0  0  0  0
   14.6240    8.5475   11.2416 C   0  0  0  0  0  0  0  0  0  0  0  0
   13.7042    7.5912   11.4440 F   0  0  0  0  0  0  0  0  0  0  0  0
   15.0225    9.4178   12.2606 C   0  0  0  0  0  0  0  0  0  0  0  0
   14.3273    9.2742   14.0122 Br  0  0  0  0  0  0  0  0  0  0  0  0
   15.9706   10.4284   12.0395 C   0  0  0  0  0  0  0  0  0  0  0  0
   16.4187   11.1964   13.1438 N   0  0  0  0  0  0  0  0  0  0  0  0
   20.2221   13.9420   10.6811 C   0  0  0  0  0  0  0  0  0  0  0  0
   20.1324   14.8748   11.8634 C   0  0  0  0  0  0  0  0  0  0  0  0
   20.6300   13.9859   12.9628 C   0  0  0  0  0  0  0  0  0  0  0  0
   20.1249   12.6880   12.6580 O   0  0  0  0  0  0  0  0  0  0  0  0
  1  2  1  0
  3  2  1  6
  3  4  1  0
  4  5  2  0
  4  6  1  0
  6  7  1  0
  7  8  2  0
  8  9  1  0
  9 10  2  0
 10 11  1  0
 10 12  1  0
 12 13  1  0
 12 14  2  0
 14 15  1  0
  3 16  1  0
 16 17  1  0
 17 18  1  0
 18 19  1  0
 19  3  1  0
 14  7  1  0
M  END
>  <HIPPO ID>  (406) 
114494

>  <alias>  (406) 
None

>  <ref_mols>  (406) 
c0692a,c1116a

>  <submitter_email>  (406) 
None

>  <ref_pdb>  (406) 
c0270a

>  <inchikey>  (406) 
SSOBASGTRAZSEX-LBPRGKRZSA-N

>  <generation_date>  (406) 
None

>  <original ID>  (406) 
SSOBASGTRAZSEX-LBPRGKRZSA-N

>  <tags>  (406) 
[]

>  <exports>  (406) 
nan

>  <method>  (406) 
None

>  <submitter_name>  (406) 
None

>  <original SMILES>  (406) 
NC[C@]1(C(=O)Nc2ccc(F)c(Br)c2N)CCCO1

>  <ref_url>  (406) 
None

$$$$
SSOBASGTRAZSEX-GFCCVEGCSA-N
     RDKit          3D

 19 20  0  0  0  0  0  0  0  0999 V2000
   22.0190   11.6479   10.5204 N   0  0  0  0  0  0  0  0  0  0  0  0
   20.5987   11.3628   10.7128 C   0  0  0  0  0  0  0  0  0  0  0  0
   19.7387   12.5850   11.1260 C   0  0  1  0  0  0  0  0  0  0  0  0
   18.2169   12.2175   11.2631 C   0  0  0  0  0  0  0  0  0  0  0  0
   17.4522   12.9366   11.9192 O   0  0  0  0  0  0  0  0  0  0  0  0
   17.7567   11.1148   10.5635 N   0  0  0  0  0  0  0  0  0  0  0  0
   16.5761   10.3688   10.8082 C   0  0  0  0  0  0  0  0  0  0  0  0
   16.1105    9.5603    9.7538 C   0  0  0  0  0  0  0  0  0  0  0  0
   15.0914    8.6339    9.9401 C   0  0  0  0  0  0  0  0  0  0  0  0
   14.5845    8.4531   11.2081 C   0  0  0  0  0  0  0  0  0  0  0  0
   13.6572    7.4993   11.3857 F   0  0  0  0  0  0  0  0  0  0  0  0
   15.0077    9.2709   12.2583 C   0  0  0  0  0  0  0  0  0  0  0  0
   14.3348    9.0574   14.0118 Br  0  0  0  0  0  0  0  0  0  0  0  0
   15.9497   10.2917   12.0631 C   0  0  0  0  0  0  0  0  0  0  0  0
   16.4246   11.0046   13.1965 N   0  0  0  0  0  0  0  0  0  0  0  0
   20.2528   13.1986   12.4422 C   0  0  0  0  0  0  0  0  0  0  0  0
   21.1166   14.3548   12.0188 C   0  0  0  0  0  0  0  0  0  0  0  0
   20.4421   14.7995   10.7536 C   0  0  0  0  0  0  0  0  0  0  0  0
   19.8898   13.6313   10.1345 O   0  0  0  0  0  0  0  0  0  0  0  0
  1  2  1  0
  3  2  1  6
  3  4  1  0
  4  5  2  0
  4  6  1  0
  6  7  1  0
  7  8  2  0
  8  9  1  0
  9 10  2  0
 10 11  1  0
 10 12  1  0
 12 13  1  0
 12 14  2  0
 14 15  1  0
  3 16  1  0
 16 17  1  0
 17 18  1  0
 18 19  1  0
 19  3  1  0
 14  7  1  0
M  END
>  <HIPPO ID>  (407) 
114495

>  <alias>  (407) 
None

>  <ref_mols>  (407) 
c0692a,c1116a

>  <submitter_email>  (407) 
None

>  <ref_pdb>  (407) 
c0270a

>  <inchikey>  (407) 
SSOBASGTRAZSEX-GFCCVEGCSA-N

>  <generation_date>  (407) 
None

>  <original ID>  (407) 
SSOBASGTRAZSEX-GFCCVEGCSA-N

>  <tags>  (407) 
[]

>  <exports>  (407) 
nan

>  <method>  (407) 
None

>  <submitter_name>  (407) 
None

>  <original SMILES>  (407) 
NC[C@@]1(C(=O)Nc2ccc(F)c(Br)c2N)CCCO1

>  <ref_url>  (407) 
None

$$$$
ISVISXCVGMLNAU-CYBMUJFWSA-N
     RDKit          3D

 19 20  0  0  0  0  0  0  0  0999 V2000
   14.8256    9.8731    8.5716 C   0  0  0  0  0  0  0  0  0  0  0  0
   16.1174    9.3117    8.9336 N   0  0  0  0  0  0  0  0  0  0  0  0
   16.1032    9.2394   10.3415 C   0  0  0  0  0  0  0  0  0  0  0  0
   15.2518    8.2644   10.8927 C   0  0  0  0  0  0  0  0  0  0  0  0
   14.7913    8.4109   12.1832 C   0  0  0  0  0  0  0  0  0  0  0  0
   15.1478    9.5581   12.8758 C   0  0  0  0  0  0  0  0  0  0  0  0
   14.3650    9.9903   14.5067 Br  0  0  0  0  0  0  0  0  0  0  0  0
   16.0717   10.4676   12.3847 C   0  0  0  0  0  0  0  0  0  0  0  0
   16.6043   10.2972   11.1223 C   0  0  0  0  0  0  0  0  0  0  0  0
   17.6763   11.0968   10.6531 N   0  0  0  0  0  0  0  0  0  0  0  0
   18.1549   12.2313   11.2921 C   0  0  0  0  0  0  0  0  0  0  0  0
   17.4160   12.9441   11.9805 O   0  0  0  0  0  0  0  0  0  0  0  0
   19.6740   12.6141   11.0993 C   0  0  2  0  0  0  0  0  0  0  0  0
   20.5361   11.3842   10.7234 C   0  0  0  0  0  0  0  0  0  0  0  0
   21.9550   11.6787   10.5130 N   0  0  0  0  0  0  0  0  0  0  0  0
   20.1716   13.2631   12.4041 C   0  0  0  0  0  0  0  0  0  0  0  0
   20.0586   14.7415   12.1488 C   0  0  0  0  0  0  0  0  0  0  0  0
   20.4180   14.8050   10.6924 C   0  0  0  0  0  0  0  0  0  0  0  0
   19.8388   13.6374   10.0904 O   0  0  0  0  0  0  0  0  0  0  0  0
  1  2  1  0
  2  3  1  0
  3  4  2  0
  4  5  1  0
  5  6  2  0
  6  7  1  0
  6  8  1  0
  8  9  2  0
  9 10  1  0
 10 11  1  0
 11 12  2  0
 11 13  1  0
 13 14  1  6
 14 15  1  0
 13 16  1  0
 16 17  1  0
 17 18  1  0
 18 19  1  0
  9  3  1  0
 19 13  1  0
M  END
>  <HIPPO ID>  (408) 
114534

>  <alias>  (408) 
None

>  <ref_mols>  (408) 
c0692a,c1116a

>  <submitter_email>  (408) 
None

>  <ref_pdb>  (408) 
c0270a

>  <inchikey>  (408) 
ISVISXCVGMLNAU-CYBMUJFWSA-N

>  <generation_date>  (408) 
None

>  <original ID>  (408) 
ISVISXCVGMLNAU-CYBMUJFWSA-N

>  <tags>  (408) 
[]

>  <exports>  (408) 
nan

>  <method>  (408) 
None

>  <submitter_name>  (408) 
None

>  <original SMILES>  (408) 
CNc1ccc(Br)cc1NC(=O)[C@]1(CN)CCCO1

>  <ref_url>  (408) 
None

$$$$
ISVISXCVGMLNAU-ZDUSSCGKSA-N
     RDKit          3D

 19 20  0  0  0  0  0  0  0  0999 V2000
   15.6194    8.9592    8.6137 C   0  0  0  0  0  0  0  0  0  0  0  0
   15.6596   10.2211    9.2675 N   0  0  0  0  0  0  0  0  0  0  0  0
   15.6997   10.0601   10.6496 C   0  0  0  0  0  0  0  0  0  0  0  0
   14.8719    9.1149   11.2746 C   0  0  0  0  0  0  0  0  0  0  0  0
   14.7355    9.1038   12.6434 C   0  0  0  0  0  0  0  0  0  0  0  0
   15.2911   10.1480   13.3484 C   0  0  0  0  0  0  0  0  0  0  0  0
   14.8784   10.4004   15.1332 Br  0  0  0  0  0  0  0  0  0  0  0  0
   16.1603   11.0511   12.7696 C   0  0  0  0  0  0  0  0  0  0  0  0
   16.4443   10.9426   11.4268 C   0  0  0  0  0  0  0  0  0  0  0  0
   17.5734   11.5726   10.8679 N   0  0  0  0  0  0  0  0  0  0  0  0
   18.2298   12.6314   11.4620 C   0  0  0  0  0  0  0  0  0  0  0  0
   17.6069   13.4768   12.1109 O   0  0  0  0  0  0  0  0  0  0  0  0
   19.7847   12.6982   11.3237 C   0  0  1  0  0  0  0  0  0  0  0  0
   20.3531   11.3989   10.7283 C   0  0  0  0  0  0  0  0  0  0  0  0
   21.8005   11.2687   10.7094 N   0  0  0  0  0  0  0  0  0  0  0  0
   20.2986   13.9833   10.6853 C   0  0  0  0  0  0  0  0  0  0  0  0
   20.3939   14.9523   11.8366 C   0  0  0  0  0  0  0  0  0  0  0  0
   20.8094   14.0554   12.9693 C   0  0  0  0  0  0  0  0  0  0  0  0
   20.2731   12.7644   12.6867 O   0  0  0  0  0  0  0  0  0  0  0  0
  1  2  1  0
  2  3  1  0
  3  4  2  0
  4  5  1  0
  5  6  2  0
  6  7  1  0
  6  8  1  0
  8  9  2  0
  9 10  1  0
 10 11  1  0
 11 12  2  0
 11 13  1  0
 13 14  1  6
 14 15  1  0
 13 16  1  0
 16 17  1  0
 17 18  1  0
 18 19  1  0
  9  3  1  0
 19 13  1  0
M  END
>  <HIPPO ID>  (409) 
114535

>  <alias>  (409) 
None

>  <ref_mols>  (409) 
c0692a,c1116a

>  <submitter_email>  (409) 
None

>  <ref_pdb>  (409) 
c0270a

>  <inchikey>  (409) 
ISVISXCVGMLNAU-ZDUSSCGKSA-N

>  <generation_date>  (409) 
None

>  <original ID>  (409) 
ISVISXCVGMLNAU-ZDUSSCGKSA-N

>  <tags>  (409) 
[]

>  <exports>  (409) 
nan

>  <method>  (409) 
None

>  <submitter_name>  (409) 
None

>  <original SMILES>  (409) 
CNc1ccc(Br)cc1NC(=O)[C@@]1(CN)CCCO1

>  <ref_url>  (409) 
None

$$$$
BJUYDIWXSUWBOB-LBPRGKRZSA-N
     RDKit          3D

 19 20  0  0  0  0  0  0  0  0999 V2000
   22.0377   11.6283   10.5662 N   0  0  0  0  0  0  0  0  0  0  0  0
   20.6181   11.3225   10.7216 C   0  0  0  0  0  0  0  0  0  0  0  0
   19.7780   12.5110   11.2293 C   0  0  2  0  0  0  0  0  0  0  0  0
   18.2258   12.2230   11.2407 C   0  0  0  0  0  0  0  0  0  0  0  0
   17.4517   12.9780   11.8440 O   0  0  0  0  0  0  0  0  0  0  0  0
   17.7654   11.1113   10.5543 N   0  0  0  0  0  0  0  0  0  0  0  0
   16.5679   10.3772   10.7729 C   0  0  0  0  0  0  0  0  0  0  0  0
   16.1366    9.5614    9.7166 C   0  0  0  0  0  0  0  0  0  0  0  0
   15.1734    8.5759    9.8942 C   0  0  0  0  0  0  0  0  0  0  0  0
   14.6918    8.3188   11.1645 C   0  0  0  0  0  0  0  0  0  0  0  0
   13.6275    6.5051   11.3708 I   0  0  0  0  0  0  0  0  0  0  0  0
   15.0203    9.2033   12.2034 C   0  0  0  0  0  0  0  0  0  0  0  0
   14.3917    9.0445   13.8016 Cl  0  0  0  0  0  0  0  0  0  0  0  0
   15.9039   10.2924   12.0051 C   0  0  0  0  0  0  0  0  0  0  0  0
   16.3147   11.0532   13.1315 N   0  0  0  0  0  0  0  0  0  0  0  0
   20.1638   13.8479   10.5889 C   0  0  0  0  0  0  0  0  0  0  0  0
   20.9946   14.5761   11.6176 C   0  0  0  0  0  0  0  0  0  0  0  0
   20.4175   14.0524   12.8989 C   0  0  0  0  0  0  0  0  0  0  0  0
   20.1280   12.6848   12.6297 O   0  0  0  0  0  0  0  0  0  0  0  0
  1  2  1  0
  3  2  1  6
  3  4  1  0
  4  5  2  0
  4  6  1  0
  6  7  1  0
  7  8  2  0
  8  9  1  0
  9 10  2  0
 10 11  1  0
 10 12  1  0
 12 13  1  0
 12 14  2  0
 14 15  1  0
  3 16  1  0
 16 17  1  0
 17 18  1  0
 18 19  1  0
 19  3  1  0
 14  7  1  0
M  END
>  <HIPPO ID>  (410) 
114536

>  <alias>  (410) 
None

>  <ref_mols>  (410) 
c0692a,c1116a

>  <submitter_email>  (410) 
None

>  <ref_pdb>  (410) 
c0270a

>  <inchikey>  (410) 
BJUYDIWXSUWBOB-LBPRGKRZSA-N

>  <generation_date>  (410) 
None

>  <original ID>  (410) 
BJUYDIWXSUWBOB-LBPRGKRZSA-N

>  <tags>  (410) 
[]

>  <exports>  (410) 
nan

>  <method>  (410) 
None

>  <submitter_name>  (410) 
None

>  <original SMILES>  (410) 
NC[C@]1(C(=O)Nc2ccc(I)c(Cl)c2N)CCCO1

>  <ref_url>  (410) 
None

$$$$
BJUYDIWXSUWBOB-GFCCVEGCSA-N
     RDKit          3D

 19 20  0  0  0  0  0  0  0  0999 V2000
   21.9411   11.6504   10.5386 N   0  0  0  0  0  0  0  0  0  0  0  0
   20.5192   11.3735   10.7323 C   0  0  0  0  0  0  0  0  0  0  0  0
   19.6614   12.5946   11.1603 C   0  0  1  0  0  0  0  0  0  0  0  0
   18.1368   12.2132   11.3186 C   0  0  0  0  0  0  0  0  0  0  0  0
   17.3826   12.8982   12.0199 O   0  0  0  0  0  0  0  0  0  0  0  0
   17.6656   11.1442   10.5751 N   0  0  0  0  0  0  0  0  0  0  0  0
   16.5036   10.3584   10.7955 C   0  0  0  0  0  0  0  0  0  0  0  0
   16.0713    9.5735    9.7164 C   0  0  0  0  0  0  0  0  0  0  0  0
   15.1251    8.5670    9.8713 C   0  0  0  0  0  0  0  0  0  0  0  0
   14.6603    8.2579   11.1366 C   0  0  0  0  0  0  0  0  0  0  0  0
   13.5833    6.4493   11.2910 I   0  0  0  0  0  0  0  0  0  0  0  0
   14.9991    9.1018   12.2043 C   0  0  0  0  0  0  0  0  0  0  0  0
   14.3911    8.8774   13.8022 Cl  0  0  0  0  0  0  0  0  0  0  0  0
   15.8659   10.2082   12.0354 C   0  0  0  0  0  0  0  0  0  0  0  0
   16.2794   10.9324   13.1864 N   0  0  0  0  0  0  0  0  0  0  0  0
   20.1906   13.2090   12.4697 C   0  0  0  0  0  0  0  0  0  0  0  0
   21.0688   14.3514   12.0398 C   0  0  0  0  0  0  0  0  0  0  0  0
   20.3986   14.7987   10.7742 C   0  0  0  0  0  0  0  0  0  0  0  0
   19.8123   13.6394   10.1687 O   0  0  0  0  0  0  0  0  0  0  0  0
  1  2  1  0
  3  2  1  6
  3  4  1  0
  4  5  2  0
  4  6  1  0
  6  7  1  0
  7  8  2  0
  8  9  1  0
  9 10  2  0
 10 11  1  0
 10 12  1  0
 12 13  1  0
 12 14  2  0
 14 15  1  0
  3 16  1  0
 16 17  1  0
 17 18  1  0
 18 19  1  0
 19  3  1  0
 14  7  1  0
M  END
>  <HIPPO ID>  (411) 
114537

>  <alias>  (411) 
None

>  <ref_mols>  (411) 
c0692a,c1116a

>  <submitter_email>  (411) 
None

>  <ref_pdb>  (411) 
c0270a

>  <inchikey>  (411) 
BJUYDIWXSUWBOB-GFCCVEGCSA-N

>  <generation_date>  (411) 
None

>  <original ID>  (411) 
BJUYDIWXSUWBOB-GFCCVEGCSA-N

>  <tags>  (411) 
[]

>  <exports>  (411) 
nan

>  <method>  (411) 
None

>  <submitter_name>  (411) 
None

>  <original SMILES>  (411) 
NC[C@@]1(C(=O)Nc2ccc(I)c(Cl)c2N)CCCO1

>  <ref_url>  (411) 
None

$$$$
ZJSRXUYIXXEXOD-NSHDSACASA-N
     RDKit          3D

 19 19  0  0  0  0  0  0  0  0999 V2000
   21.6522   11.3258   10.4691 C   0  0  0  0  0  0  0  0  0  0  0  0
   20.2366   11.4395   10.4944 O   0  0  0  0  0  0  0  0  0  0  0  0
   19.6884   12.5531   11.1986 C   0  0  2  0  0  0  0  0  0  0  0  0
   20.0976   13.8715   10.5182 C   0  0  0  0  0  0  0  0  0  0  0  0
   20.1316   12.9152   12.6209 C   0  0  0  0  0  0  0  0  0  0  0  0
   19.5334   13.6787   13.3621 O   0  0  0  0  0  0  0  0  0  0  0  0
   21.3496   12.4493   12.9598 O   0  0  0  0  0  0  0  0  0  0  0  0
   18.1303   12.2843   11.2315 C   0  0  0  0  0  0  0  0  0  0  0  0
   17.3260   13.0700   11.7318 O   0  0  0  0  0  0  0  0  0  0  0  0
   17.7111   11.0987   10.6242 N   0  0  0  0  0  0  0  0  0  0  0  0
   16.5138   10.3876   10.9047 C   0  0  0  0  0  0  0  0  0  0  0  0
   15.9794    9.4930    9.9543 C   0  0  0  0  0  0  0  0  0  0  0  0
   16.3874    9.4644    8.6273 N   0  0  0  0  0  0  0  0  0  0  0  0
   15.0775    8.4953   10.3289 C   0  0  0  0  0  0  0  0  0  0  0  0
   14.5775    8.4800   11.6119 C   0  0  0  0  0  0  0  0  0  0  0  0
   14.9139    9.5210   12.4653 C   0  0  0  0  0  0  0  0  0  0  0  0
   14.2617    9.6783   13.6165 F   0  0  0  0  0  0  0  0  0  0  0  0
   15.9078   10.4276   12.1519 C   0  0  0  0  0  0  0  0  0  0  0  0
   16.3511   11.2145   13.1387 F   0  0  0  0  0  0  0  0  0  0  0  0
  1  2  1  0
  3  2  1  0
  3  4  1  6
  3  5  1  0
  5  6  2  0
  5  7  1  0
  3  8  1  0
  8  9  2  0
  8 10  1  0
 10 11  1  0
 11 12  2  0
 12 13  1  0
 12 14  1  0
 14 15  2  0
 15 16  1  0
 16 17  1  0
 16 18  2  0
 18 19  1  0
 18 11  1  0
M  END
>  <HIPPO ID>  (412) 
114992

>  <alias>  (412) 
None

>  <ref_mols>  (412) 
c0692a,c1116a

>  <submitter_email>  (412) 
None

>  <ref_pdb>  (412) 
c0270a

>  <inchikey>  (412) 
ZJSRXUYIXXEXOD-NSHDSACASA-N

>  <generation_date>  (412) 
None

>  <original ID>  (412) 
ZJSRXUYIXXEXOD-NSHDSACASA-N

>  <tags>  (412) 
[]

>  <exports>  (412) 
nan

>  <method>  (412) 
None

>  <submitter_name>  (412) 
None

>  <original SMILES>  (412) 
CO[C@](C)(C(=O)O)C(=O)Nc1c(N)ccc(F)c1F

>  <ref_url>  (412) 
None

$$$$
ZJSRXUYIXXEXOD-LLVKDONJSA-N
     RDKit          3D

 19 19  0  0  0  0  0  0  0  0999 V2000
   21.6838   11.5107   10.2502 C   0  0  0  0  0  0  0  0  0  0  0  0
   20.2620   11.5254   10.3760 O   0  0  0  0  0  0  0  0  0  0  0  0
   19.7300   12.6025   11.1604 C   0  0  1  0  0  0  0  0  0  0  0  0
   20.4922   12.7314   12.4867 C   0  0  0  0  0  0  0  0  0  0  0  0
   19.8839   14.0030   10.5295 C   0  0  0  0  0  0  0  0  0  0  0  0
   20.1065   14.2804    9.3610 O   0  0  0  0  0  0  0  0  0  0  0  0
   19.7818   15.0325   11.3922 O   0  0  0  0  0  0  0  0  0  0  0  0
   18.2027   12.2733   11.3801 C   0  0  0  0  0  0  0  0  0  0  0  0
   17.4784   13.0092   12.0497 O   0  0  0  0  0  0  0  0  0  0  0  0
   17.7285   11.1299   10.7296 N   0  0  0  0  0  0  0  0  0  0  0  0
   16.5438   10.3886   11.0265 C   0  0  0  0  0  0  0  0  0  0  0  0
   16.0702    9.4225   10.1055 C   0  0  0  0  0  0  0  0  0  0  0  0
   16.3392    9.4884    8.7533 N   0  0  0  0  0  0  0  0  0  0  0  0
   15.1257    8.4578   10.4771 C   0  0  0  0  0  0  0  0  0  0  0  0
   14.5975    8.4735   11.7466 C   0  0  0  0  0  0  0  0  0  0  0  0
   14.9156    9.5367   12.5763 C   0  0  0  0  0  0  0  0  0  0  0  0
   14.2288    9.7273   13.7024 F   0  0  0  0  0  0  0  0  0  0  0  0
   15.9110   10.4433   12.2609 C   0  0  0  0  0  0  0  0  0  0  0  0
   16.3096   11.2576   13.2426 F   0  0  0  0  0  0  0  0  0  0  0  0
  1  2  1  0
  3  2  1  0
  3  4  1  1
  3  5  1  0
  5  6  2  0
  5  7  1  0
  3  8  1  0
  8  9  2  0
  8 10  1  0
 10 11  1  0
 11 12  2  0
 12 13  1  0
 12 14  1  0
 14 15  2  0
 15 16  1  0
 16 17  1  0
 16 18  2  0
 18 19  1  0
 18 11  1  0
M  END
>  <HIPPO ID>  (413) 
114993

>  <alias>  (413) 
None

>  <ref_mols>  (413) 
c0692a,c1116a

>  <submitter_email>  (413) 
None

>  <ref_pdb>  (413) 
c0270a

>  <inchikey>  (413) 
ZJSRXUYIXXEXOD-LLVKDONJSA-N

>  <generation_date>  (413) 
None

>  <original ID>  (413) 
ZJSRXUYIXXEXOD-LLVKDONJSA-N

>  <tags>  (413) 
[]

>  <exports>  (413) 
nan

>  <method>  (413) 
None

>  <submitter_name>  (413) 
None

>  <original SMILES>  (413) 
CO[C@@](C)(C(=O)O)C(=O)Nc1c(N)ccc(F)c1F

>  <ref_url>  (413) 
None

$$$$
BUNHUYAMTVPEFM-NSHDSACASA-N
     RDKit          3D

 19 19  0  0  0  0  0  0  0  0999 V2000
   21.7865   11.3924   10.3545 C   0  0  0  0  0  0  0  0  0  0  0  0
   20.3727   11.5546   10.3453 O   0  0  0  0  0  0  0  0  0  0  0  0
   19.8528   12.6191   11.1553 C   0  0  2  0  0  0  0  0  0  0  0  0
   20.1996   13.9702   10.5120 C   0  0  0  0  0  0  0  0  0  0  0  0
   20.4497   12.7908   12.5488 C   0  0  0  0  0  0  0  0  0  0  0  0
   21.4534   12.2367   12.9657 O   0  0  0  0  0  0  0  0  0  0  0  0
   19.8361   13.7288   13.2961 O   0  0  0  0  0  0  0  0  0  0  0  0
   18.3174   12.3442   11.2546 C   0  0  0  0  0  0  0  0  0  0  0  0
   17.5251   13.1164   11.7972 O   0  0  0  0  0  0  0  0  0  0  0  0
   17.9177   11.1541   10.6595 N   0  0  0  0  0  0  0  0  0  0  0  0
   16.6929   10.4699   10.8022 C   0  0  0  0  0  0  0  0  0  0  0  0
   16.3410    9.5819    9.7689 C   0  0  0  0  0  0  0  0  0  0  0  0
   15.2819    8.6921    9.8855 C   0  0  0  0  0  0  0  0  0  0  0  0
   14.5990    8.6475   11.0719 C   0  0  0  0  0  0  0  0  0  0  0  0
   13.6560    7.7079   11.2298 F   0  0  0  0  0  0  0  0  0  0  0  0
   14.8775    9.5846   12.0650 C   0  0  0  0  0  0  0  0  0  0  0  0
   14.1392    9.6500   13.1769 F   0  0  0  0  0  0  0  0  0  0  0  0
   15.8885   10.5376   11.9430 C   0  0  0  0  0  0  0  0  0  0  0  0
   16.2040   11.3066   13.0907 N   0  0  0  0  0  0  0  0  0  0  0  0
  1  2  1  0
  3  2  1  0
  3  4  1  6
  3  5  1  0
  5  6  2  0
  5  7  1  0
  3  8  1  0
  8  9  2  0
  8 10  1  0
 10 11  1  0
 11 12  2  0
 12 13  1  0
 13 14  2  0
 14 15  1  0
 14 16  1  0
 16 17  1  0
 16 18  2  0
 18 19  1  0
 18 11  1  0
M  END
>  <HIPPO ID>  (414) 
114994

>  <alias>  (414) 
None

>  <ref_mols>  (414) 
c0692a,c1116a

>  <submitter_email>  (414) 
None

>  <ref_pdb>  (414) 
c0270a

>  <inchikey>  (414) 
BUNHUYAMTVPEFM-NSHDSACASA-N

>  <generation_date>  (414) 
None

>  <original ID>  (414) 
BUNHUYAMTVPEFM-NSHDSACASA-N

>  <tags>  (414) 
[]

>  <exports>  (414) 
nan

>  <method>  (414) 
None

>  <submitter_name>  (414) 
None

>  <original SMILES>  (414) 
CO[C@](C)(C(=O)O)C(=O)Nc1ccc(F)c(F)c1N

>  <ref_url>  (414) 
None

$$$$
BUNHUYAMTVPEFM-LLVKDONJSA-N
     RDKit          3D

 19 19  0  0  0  0  0  0  0  0999 V2000
   21.7925   11.5235   10.3107 C   0  0  0  0  0  0  0  0  0  0  0  0
   20.3717   11.6162   10.3535 O   0  0  0  0  0  0  0  0  0  0  0  0
   19.8310   12.6594   11.1707 C   0  0  1  0  0  0  0  0  0  0  0  0
   20.5723   12.7691   12.5079 C   0  0  0  0  0  0  0  0  0  0  0  0
   19.9395   14.1007   10.6445 C   0  0  0  0  0  0  0  0  0  0  0  0
   19.5776   15.1170   11.2177 O   0  0  0  0  0  0  0  0  0  0  0  0
   20.5877   14.2381    9.4719 O   0  0  0  0  0  0  0  0  0  0  0  0
   18.3266   12.2987   11.3893 C   0  0  0  0  0  0  0  0  0  0  0  0
   17.5772   12.9885   12.0825 O   0  0  0  0  0  0  0  0  0  0  0  0
   17.9062   11.1608   10.7114 N   0  0  0  0  0  0  0  0  0  0  0  0
   16.6970   10.4430   10.8510 C   0  0  0  0  0  0  0  0  0  0  0  0
   16.3381    9.5989    9.7825 C   0  0  0  0  0  0  0  0  0  0  0  0
   15.2750    8.7074    9.8616 C   0  0  0  0  0  0  0  0  0  0  0  0
   14.5922    8.6114   11.0448 C   0  0  0  0  0  0  0  0  0  0  0  0
   13.6384    7.6770   11.1627 F   0  0  0  0  0  0  0  0  0  0  0  0
   14.8855    9.4934   12.0808 C   0  0  0  0  0  0  0  0  0  0  0  0
   14.1552    9.5077   13.1996 F   0  0  0  0  0  0  0  0  0  0  0  0
   15.9047   10.4432   12.0030 C   0  0  0  0  0  0  0  0  0  0  0  0
   16.2368   11.1293   13.1973 N   0  0  0  0  0  0  0  0  0  0  0  0
  1  2  1  0
  3  2  1  0
  3  4  1  1
  3  5  1  0
  5  6  2  0
  5  7  1  0
  3  8  1  0
  8  9  2  0
  8 10  1  0
 10 11  1  0
 11 12  2  0
 12 13  1  0
 13 14  2  0
 14 15  1  0
 14 16  1  0
 16 17  1  0
 16 18  2  0
 18 19  1  0
 18 11  1  0
M  END
>  <HIPPO ID>  (415) 
114995

>  <alias>  (415) 
None

>  <ref_mols>  (415) 
c0692a,c1116a

>  <submitter_email>  (415) 
None

>  <ref_pdb>  (415) 
c0270a

>  <inchikey>  (415) 
BUNHUYAMTVPEFM-LLVKDONJSA-N

>  <generation_date>  (415) 
None

>  <original ID>  (415) 
BUNHUYAMTVPEFM-LLVKDONJSA-N

>  <tags>  (415) 
[]

>  <exports>  (415) 
nan

>  <method>  (415) 
None

>  <submitter_name>  (415) 
None

>  <original SMILES>  (415) 
CO[C@@](C)(C(=O)O)C(=O)Nc1ccc(F)c(F)c1N

>  <ref_url>  (415) 
None

$$$$
WKZJLEUSXJAEFB-NSHDSACASA-N
     RDKit          3D

 19 19  0  0  0  0  0  0  0  0999 V2000
   21.6416   11.3180   10.4559 C   0  0  0  0  0  0  0  0  0  0  0  0
   20.2260   11.4314   10.4889 O   0  0  0  0  0  0  0  0  0  0  0  0
   19.6831   12.5471   11.1910 C   0  0  2  0  0  0  0  0  0  0  0  0
   20.0956   13.8693   10.5219 C   0  0  0  0  0  0  0  0  0  0  0  0
   20.1285   12.8901   12.6131 C   0  0  0  0  0  0  0  0  0  0  0  0
   19.4936   13.5934   13.3803 O   0  0  0  0  0  0  0  0  0  0  0  0
   21.3693   12.4835   12.9361 O   0  0  0  0  0  0  0  0  0  0  0  0
   18.1215   12.2843   11.2397 C   0  0  0  0  0  0  0  0  0  0  0  0
   17.3297   13.0461   11.7952 O   0  0  0  0  0  0  0  0  0  0  0  0
   17.6917   11.1113   10.6210 N   0  0  0  0  0  0  0  0  0  0  0  0
   16.4961   10.3972   10.8894 C   0  0  0  0  0  0  0  0  0  0  0  0
   15.8229   10.5465   12.0884 C   0  0  0  0  0  0  0  0  0  0  0  0
   14.8524    9.6191   12.4262 C   0  0  0  0  0  0  0  0  0  0  0  0
   14.1503    9.8552   13.5346 F   0  0  0  0  0  0  0  0  0  0  0  0
   14.5701    8.5207   11.6146 C   0  0  0  0  0  0  0  0  0  0  0  0
   13.6720    7.5860   11.9570 F   0  0  0  0  0  0  0  0  0  0  0  0
   15.1255    8.4406   10.3675 C   0  0  0  0  0  0  0  0  0  0  0  0
   16.0660    9.3922    9.9944 C   0  0  0  0  0  0  0  0  0  0  0  0
   16.3793    9.4307    8.6545 N   0  0  0  0  0  0  0  0  0  0  0  0
  1  2  1  0
  3  2  1  0
  3  4  1  6
  3  5  1  0
  5  6  2  0
  5  7  1  0
  3  8  1  0
  8  9  2  0
  8 10  1  0
 10 11  1  0
 11 12  2  0
 12 13  1  0
 13 14  1  0
 13 15  2  0
 15 16  1  0
 15 17  1  0
 17 18  2  0
 18 19  1  0
 18 11  1  0
M  END
>  <HIPPO ID>  (416) 
114998

>  <alias>  (416) 
None

>  <ref_mols>  (416) 
c0692a,c1116a

>  <submitter_email>  (416) 
None

>  <ref_pdb>  (416) 
c0270a

>  <inchikey>  (416) 
WKZJLEUSXJAEFB-NSHDSACASA-N

>  <generation_date>  (416) 
None

>  <original ID>  (416) 
WKZJLEUSXJAEFB-NSHDSACASA-N

>  <tags>  (416) 
[]

>  <exports>  (416) 
nan

>  <method>  (416) 
None

>  <submitter_name>  (416) 
None

>  <original SMILES>  (416) 
CO[C@](C)(C(=O)O)C(=O)Nc1cc(F)c(F)cc1N

>  <ref_url>  (416) 
None

$$$$
WKZJLEUSXJAEFB-LLVKDONJSA-N
     RDKit          3D

 19 19  0  0  0  0  0  0  0  0999 V2000
   21.6314   11.4869   10.2532 C   0  0  0  0  0  0  0  0  0  0  0  0
   20.2099   11.5726   10.3350 O   0  0  0  0  0  0  0  0  0  0  0  0
   19.6918   12.5965   11.1872 C   0  0  1  0  0  0  0  0  0  0  0  0
   20.5184   12.7088   12.4824 C   0  0  0  0  0  0  0  0  0  0  0  0
   19.7746   14.0577   10.7078 C   0  0  0  0  0  0  0  0  0  0  0  0
   19.5496   15.0556   11.3767 O   0  0  0  0  0  0  0  0  0  0  0  0
   20.2480   14.2489    9.4596 O   0  0  0  0  0  0  0  0  0  0  0  0
   18.1946   12.2083   11.4887 C   0  0  0  0  0  0  0  0  0  0  0  0
   17.5416   12.7851   12.3582 O   0  0  0  0  0  0  0  0  0  0  0  0
   17.6713   11.1684   10.7110 N   0  0  0  0  0  0  0  0  0  0  0  0
   16.4994   10.3995   10.9688 C   0  0  0  0  0  0  0  0  0  0  0  0
   15.8179   10.4911   12.1701 C   0  0  0  0  0  0  0  0  0  0  0  0
   14.8452    9.5528   12.4716 C   0  0  0  0  0  0  0  0  0  0  0  0
   14.1337    9.7585   13.5798 F   0  0  0  0  0  0  0  0  0  0  0  0
   14.5633    8.4868   11.6229 C   0  0  0  0  0  0  0  0  0  0  0  0
   13.6530    7.5498   11.9240 F   0  0  0  0  0  0  0  0  0  0  0  0
   15.1296    8.4514   10.3796 C   0  0  0  0  0  0  0  0  0  0  0  0
   16.0763    9.4152   10.0409 C   0  0  0  0  0  0  0  0  0  0  0  0
   16.3894    9.4721    8.7010 N   0  0  0  0  0  0  0  0  0  0  0  0
  1  2  1  0
  3  2  1  0
  3  4  1  1
  3  5  1  0
  5  6  2  0
  5  7  1  0
  3  8  1  0
  8  9  2  0
  8 10  1  0
 10 11  1  0
 11 12  2  0
 12 13  1  0
 13 14  1  0
 13 15  2  0
 15 16  1  0
 15 17  1  0
 17 18  2  0
 18 19  1  0
 18 11  1  0
M  END
>  <HIPPO ID>  (417) 
114999

>  <alias>  (417) 
None

>  <ref_mols>  (417) 
c0692a,c1116a

>  <submitter_email>  (417) 
None

>  <ref_pdb>  (417) 
c0270a

>  <inchikey>  (417) 
WKZJLEUSXJAEFB-LLVKDONJSA-N

>  <generation_date>  (417) 
None

>  <original ID>  (417) 
WKZJLEUSXJAEFB-LLVKDONJSA-N

>  <tags>  (417) 
[]

>  <exports>  (417) 
nan

>  <method>  (417) 
None

>  <submitter_name>  (417) 
None

>  <original SMILES>  (417) 
CO[C@@](C)(C(=O)O)C(=O)Nc1cc(F)c(F)cc1N

>  <ref_url>  (417) 
None

$$$$
WRIKJXSQHMPECY-NSHDSACASA-N
     RDKit          3D

 19 19  0  0  0  0  0  0  0  0999 V2000
   21.6052   11.2826   10.3140 C   0  0  0  0  0  0  0  0  0  0  0  0
   20.1900   11.4502   10.3428 O   0  0  0  0  0  0  0  0  0  0  0  0
   19.6982   12.5053   11.1792 C   0  0  2  0  0  0  0  0  0  0  0  0
   20.0540   13.8670   10.5613 C   0  0  0  0  0  0  0  0  0  0  0  0
   20.3751   12.6791   12.5399 C   0  0  0  0  0  0  0  0  0  0  0  0
   21.3936   12.1152   12.9064 O   0  0  0  0  0  0  0  0  0  0  0  0
   19.8217   13.6408   13.3033 O   0  0  0  0  0  0  0  0  0  0  0  0
   18.1501   12.2182   11.3493 C   0  0  0  0  0  0  0  0  0  0  0  0
   17.4213   12.8889   12.0804 O   0  0  0  0  0  0  0  0  0  0  0  0
   17.6534   11.1377   10.6117 N   0  0  0  0  0  0  0  0  0  0  0  0
   16.4707   10.3896   10.8592 C   0  0  0  0  0  0  0  0  0  0  0  0
   15.8235   10.4247   12.0808 C   0  0  0  0  0  0  0  0  0  0  0  0
   14.8993    9.4311   12.3867 C   0  0  0  0  0  0  0  0  0  0  0  0
   14.2543    9.5603   13.5461 F   0  0  0  0  0  0  0  0  0  0  0  0
   14.6328    8.3733   11.5163 C   0  0  0  0  0  0  0  0  0  0  0  0
   13.7028    6.9830   11.9327 Cl  0  0  0  0  0  0  0  0  0  0  0  0
   15.1294    8.4420   10.2393 C   0  0  0  0  0  0  0  0  0  0  0  0
   15.9915    9.4788    9.8946 C   0  0  0  0  0  0  0  0  0  0  0  0
   16.4311    9.4607    8.5798 N   0  0  0  0  0  0  0  0  0  0  0  0
  1  2  1  0
  3  2  1  0
  3  4  1  6
  3  5  1  0
  5  6  2  0
  5  7  1  0
  3  8  1  0
  8  9  2  0
  8 10  1  0
 10 11  1  0
 11 12  2  0
 12 13  1  0
 13 14  1  0
 13 15  2  0
 15 16  1  0
 15 17  1  0
 17 18  2  0
 18 19  1  0
 18 11  1  0
M  END
>  <HIPPO ID>  (418) 
115056

>  <alias>  (418) 
None

>  <ref_mols>  (418) 
c0692a,c1116a

>  <submitter_email>  (418) 
None

>  <ref_pdb>  (418) 
c0270a

>  <inchikey>  (418) 
WRIKJXSQHMPECY-NSHDSACASA-N

>  <generation_date>  (418) 
None

>  <original ID>  (418) 
WRIKJXSQHMPECY-NSHDSACASA-N

>  <tags>  (418) 
[]

>  <exports>  (418) 
nan

>  <method>  (418) 
None

>  <submitter_name>  (418) 
None

>  <original SMILES>  (418) 
CO[C@](C)(C(=O)O)C(=O)Nc1cc(F)c(Cl)cc1N

>  <ref_url>  (418) 
None

$$$$
WRIKJXSQHMPECY-LLVKDONJSA-N
     RDKit          3D

 19 19  0  0  0  0  0  0  0  0999 V2000
   21.6284   11.4601   10.2493 C   0  0  0  0  0  0  0  0  0  0  0  0
   20.2067   11.4848   10.3821 O   0  0  0  0  0  0  0  0  0  0  0  0
   19.6840   12.5344   11.2069 C   0  0  1  0  0  0  0  0  0  0  0  0
   20.5230   12.7034   12.4865 C   0  0  0  0  0  0  0  0  0  0  0  0
   19.7697   13.9445   10.6024 C   0  0  0  0  0  0  0  0  0  0  0  0
   20.1534   14.2517    9.4826 O   0  0  0  0  0  0  0  0  0  0  0  0
   19.4240   14.9323   11.4567 O   0  0  0  0  0  0  0  0  0  0  0  0
   18.1835   12.1421   11.5051 C   0  0  0  0  0  0  0  0  0  0  0  0
   17.5453   12.6700   12.4168 O   0  0  0  0  0  0  0  0  0  0  0  0
   17.6322   11.1598   10.6712 N   0  0  0  0  0  0  0  0  0  0  0  0
   16.4657   10.3761   10.9068 C   0  0  0  0  0  0  0  0  0  0  0  0
   15.8086   10.3758   12.1243 C   0  0  0  0  0  0  0  0  0  0  0  0
   14.8849    9.3746   12.4042 C   0  0  0  0  0  0  0  0  0  0  0  0
   14.2328    9.4816   13.5618 F   0  0  0  0  0  0  0  0  0  0  0  0
   14.6214    8.3381   11.5102 C   0  0  0  0  0  0  0  0  0  0  0  0
   13.6770    6.9472   11.8895 Cl  0  0  0  0  0  0  0  0  0  0  0  0
   15.1311    8.4338   10.2405 C   0  0  0  0  0  0  0  0  0  0  0  0
   15.9999    9.4764    9.9232 C   0  0  0  0  0  0  0  0  0  0  0  0
   16.4548    9.4674    8.6131 N   0  0  0  0  0  0  0  0  0  0  0  0
  1  2  1  0
  3  2  1  0
  3  4  1  1
  3  5  1  0
  5  6  2  0
  5  7  1  0
  3  8  1  0
  8  9  2  0
  8 10  1  0
 10 11  1  0
 11 12  2  0
 12 13  1  0
 13 14  1  0
 13 15  2  0
 15 16  1  0
 15 17  1  0
 17 18  2  0
 18 19  1  0
 18 11  1  0
M  END
>  <HIPPO ID>  (419) 
115057

>  <alias>  (419) 
None

>  <ref_mols>  (419) 
c0692a,c1116a

>  <submitter_email>  (419) 
None

>  <ref_pdb>  (419) 
c0270a

>  <inchikey>  (419) 
WRIKJXSQHMPECY-LLVKDONJSA-N

>  <generation_date>  (419) 
None

>  <original ID>  (419) 
WRIKJXSQHMPECY-LLVKDONJSA-N

>  <tags>  (419) 
[]

>  <exports>  (419) 
nan

>  <method>  (419) 
None

>  <submitter_name>  (419) 
None

>  <original SMILES>  (419) 
CO[C@@](C)(C(=O)O)C(=O)Nc1cc(F)c(Cl)cc1N

>  <ref_url>  (419) 
None

$$$$
IQNRJSKLSHTAJT-UHFFFAOYSA-N
     RDKit          3D

 19 19  0  0  0  0  0  0  0  0999 V2000
   23.9830   13.5158    7.6336 C   0  0  0  0  0  0  0  0  0  0  0  0
   23.2579   13.0493    8.4644 C   0  0  0  0  0  0  0  0  0  0  0  0
   22.2886   12.4183    9.3332 C   0  0  0  0  0  0  0  0  0  0  0  0
   22.6193   12.1460   10.7619 C   0  0  0  0  0  0  0  0  0  0  0  0
   21.5773   11.1794   11.3309 C   0  0  0  0  0  0  0  0  0  0  0  0
   20.2496   11.2922   10.7900 O   0  0  0  0  0  0  0  0  0  0  0  0
   19.5123   12.4138   11.2499 C   0  0  0  0  0  0  0  0  0  0  0  0
   18.0224   12.0913   11.3994 C   0  0  0  0  0  0  0  0  0  0  0  0
   17.3197   12.7567   12.1604 O   0  0  0  0  0  0  0  0  0  0  0  0
   17.5581   11.0495   10.6170 N   0  0  0  0  0  0  0  0  0  0  0  0
   16.4017   10.2868   10.8778 C   0  0  0  0  0  0  0  0  0  0  0  0
   15.8473   10.2734   12.1447 C   0  0  0  0  0  0  0  0  0  0  0  0
   14.9068    9.3129   12.4667 C   0  0  0  0  0  0  0  0  0  0  0  0
   14.2735    9.4095   14.0479 Cl  0  0  0  0  0  0  0  0  0  0  0  0
   14.5153    8.3549   11.5321 C   0  0  0  0  0  0  0  0  0  0  0  0
   13.6163    7.4022   11.8223 F   0  0  0  0  0  0  0  0  0  0  0  0
   14.9769    8.4282   10.2372 C   0  0  0  0  0  0  0  0  0  0  0  0
   15.8758    9.4312    9.8937 C   0  0  0  0  0  0  0  0  0  0  0  0
   16.3225    9.4449    8.5811 N   0  0  0  0  0  0  0  0  0  0  0  0
  1  2  3  0
  2  3  1  0
  3  4  1  0
  4  5  1  0
  5  6  1  0
  6  7  1  0
  7  8  1  0
  8  9  2  0
  8 10  1  0
 10 11  1  0
 11 12  2  0
 12 13  1  0
 13 14  1  0
 13 15  2  0
 15 16  1  0
 15 17  1  0
 17 18  2  0
 18 19  1  0
 18 11  1  0
M  END
>  <HIPPO ID>  (420) 
115064

>  <alias>  (420) 
None

>  <ref_mols>  (420) 
c0692a,c1116a

>  <submitter_email>  (420) 
None

>  <ref_pdb>  (420) 
c0270a

>  <inchikey>  (420) 
IQNRJSKLSHTAJT-UHFFFAOYSA-N

>  <generation_date>  (420) 
None

>  <original ID>  (420) 
IQNRJSKLSHTAJT-UHFFFAOYSA-N

>  <tags>  (420) 
[]

>  <exports>  (420) 
nan

>  <method>  (420) 
None

>  <submitter_name>  (420) 
None

>  <original SMILES>  (420) 
C#CCCCOCC(=O)Nc1cc(Cl)c(F)cc1N

>  <ref_url>  (420) 
None

$$$$
FNCMEKCOXPIQIB-UHFFFAOYSA-N
     RDKit          3D

 19 19  0  0  0  0  0  0  0  0999 V2000
   23.8279   11.7031   14.7602 C   0  0  0  0  0  0  0  0  0  0  0  0
   23.1341   12.0334   13.8384 C   0  0  0  0  0  0  0  0  0  0  0  0
   22.2256   12.4339   12.7596 C   0  0  0  0  0  0  0  0  0  0  0  0
   22.3123   11.4572   11.5977 C   0  0  0  0  0  0  0  0  0  0  0  0
   21.3781   11.7766   10.4449 C   0  0  0  0  0  0  0  0  0  0  0  0
   20.0224   11.4078   10.7082 O   0  0  0  0  0  0  0  0  0  0  0  0
   19.2235   12.4865   11.1689 C   0  0  0  0  0  0  0  0  0  0  0  0
   17.7925   12.0424   11.4492 C   0  0  0  0  0  0  0  0  0  0  0  0
   17.1265   12.5945   12.3229 O   0  0  0  0  0  0  0  0  0  0  0  0
   17.3397   11.0337   10.6260 N   0  0  0  0  0  0  0  0  0  0  0  0
   16.2339   10.2003   10.8652 C   0  0  0  0  0  0  0  0  0  0  0  0
   15.6552   10.1031   12.1149 C   0  0  0  0  0  0  0  0  0  0  0  0
   14.7813    9.0630   12.3653 C   0  0  0  0  0  0  0  0  0  0  0  0
   14.2011    9.0675   13.5644 F   0  0  0  0  0  0  0  0  0  0  0  0
   14.4778    8.1028   11.4004 C   0  0  0  0  0  0  0  0  0  0  0  0
   13.4965    6.7234   11.7175 Cl  0  0  0  0  0  0  0  0  0  0  0  0
   14.9442    8.2857   10.1176 C   0  0  0  0  0  0  0  0  0  0  0  0
   15.7763    9.3634    9.8349 C   0  0  0  0  0  0  0  0  0  0  0  0
   16.2672    9.4554    8.5418 N   0  0  0  0  0  0  0  0  0  0  0  0
  1  2  3  0
  2  3  1  0
  3  4  1  0
  4  5  1  0
  5  6  1  0
  6  7  1  0
  7  8  1  0
  8  9  2  0
  8 10  1  0
 10 11  1  0
 11 12  2  0
 12 13  1  0
 13 14  1  0
 13 15  2  0
 15 16  1  0
 15 17  1  0
 17 18  2  0
 18 19  1  0
 18 11  1  0
M  END
>  <HIPPO ID>  (421) 
115065

>  <alias>  (421) 
None

>  <ref_mols>  (421) 
c0692a,c1116a

>  <submitter_email>  (421) 
None

>  <ref_pdb>  (421) 
c0270a

>  <inchikey>  (421) 
FNCMEKCOXPIQIB-UHFFFAOYSA-N

>  <generation_date>  (421) 
None

>  <original ID>  (421) 
FNCMEKCOXPIQIB-UHFFFAOYSA-N

>  <tags>  (421) 
[]

>  <exports>  (421) 
nan

>  <method>  (421) 
None

>  <submitter_name>  (421) 
None

>  <original SMILES>  (421) 
C#CCCCOCC(=O)Nc1cc(F)c(Cl)cc1N

>  <ref_url>  (421) 
None

$$$$
HCCWJCXMEHYYLN-UHFFFAOYSA-N
     RDKit          3D

 19 19  0  0  0  0  0  0  0  0999 V2000
   24.7552   12.4055   12.1866 C   0  0  0  0  0  0  0  0  0  0  0  0
   24.1605   12.1568   11.1733 C   0  0  0  0  0  0  0  0  0  0  0  0
   23.4149   11.8493    9.9401 C   0  0  0  0  0  0  0  0  0  0  0  0
   22.0912   11.1673   10.2547 C   0  0  0  0  0  0  0  0  0  0  0  0
   21.1568   12.1509   10.9132 C   0  0  0  0  0  0  0  0  0  0  0  0
   19.8201   11.6661   10.8133 O   0  0  0  0  0  0  0  0  0  0  0  0
   18.9537   12.6404   11.3680 C   0  0  0  0  0  0  0  0  0  0  0  0
   17.5056   12.2050   11.4201 C   0  0  0  0  0  0  0  0  0  0  0  0
   16.6760   12.9164   11.9829 O   0  0  0  0  0  0  0  0  0  0  0  0
   17.2363   11.0241   10.7751 N   0  0  0  0  0  0  0  0  0  0  0  0
   16.1527   10.1597   11.0203 C   0  0  0  0  0  0  0  0  0  0  0  0
   15.7154    9.3472    9.9484 C   0  0  0  0  0  0  0  0  0  0  0  0
   16.1853    9.5128    8.6520 N   0  0  0  0  0  0  0  0  0  0  0  0
   14.8963    8.2441   10.1800 C   0  0  0  0  0  0  0  0  0  0  0  0
   14.4217    8.0031   11.4490 C   0  0  0  0  0  0  0  0  0  0  0  0
   14.7235    8.9149   12.4513 C   0  0  0  0  0  0  0  0  0  0  0  0
   14.0942    8.8185   13.6221 F   0  0  0  0  0  0  0  0  0  0  0  0
   15.5994    9.9797   12.2891 C   0  0  0  0  0  0  0  0  0  0  0  0
   15.8623   10.7984   13.5150 C   0  0  0  0  0  0  0  0  0  0  0  0
  1  2  3  0
  2  3  1  0
  3  4  1  0
  4  5  1  0
  5  6  1  0
  6  7  1  0
  7  8  1  0
  8  9  2  0
  8 10  1  0
 10 11  1  0
 11 12  2  0
 12 13  1  0
 12 14  1  0
 14 15  2  0
 15 16  1  0
 16 17  1  0
 16 18  2  0
 18 19  1  0
 18 11  1  0
M  END
>  <HIPPO ID>  (422) 
115073

>  <alias>  (422) 
None

>  <ref_mols>  (422) 
c0692a,c1116a

>  <submitter_email>  (422) 
None

>  <ref_pdb>  (422) 
c0270a

>  <inchikey>  (422) 
HCCWJCXMEHYYLN-UHFFFAOYSA-N

>  <generation_date>  (422) 
None

>  <original ID>  (422) 
HCCWJCXMEHYYLN-UHFFFAOYSA-N

>  <tags>  (422) 
[]

>  <exports>  (422) 
nan

>  <method>  (422) 
None

>  <submitter_name>  (422) 
None

>  <original SMILES>  (422) 
C#CCCCOCC(=O)Nc1c(N)ccc(F)c1C

>  <ref_url>  (422) 
None

$$$$
PQEQILYYKWEDTD-LBPRGKRZSA-N
     RDKit          3D

 19 19  0  0  0  0  0  0  0  0999 V2000
   14.8916    9.8598    8.5974 C   0  0  0  0  0  0  0  0  0  0  0  0
   16.1946    9.3398    8.9859 N   0  0  0  0  0  0  0  0  0  0  0  0
   16.1825    9.3135   10.3980 C   0  0  0  0  0  0  0  0  0  0  0  0
   15.3273    8.3608   10.9799 C   0  0  0  0  0  0  0  0  0  0  0  0
   14.8435    8.5721   12.2518 C   0  0  0  0  0  0  0  0  0  0  0  0
   15.1749    9.7607   12.8858 C   0  0  0  0  0  0  0  0  0  0  0  0
   14.3803   10.2583   14.4881 Br  0  0  0  0  0  0  0  0  0  0  0  0
   16.0987   10.6545   12.3668 C   0  0  0  0  0  0  0  0  0  0  0  0
   16.6717   10.4071   11.1381 C   0  0  0  0  0  0  0  0  0  0  0  0
   17.7860   11.1536   10.6911 N   0  0  0  0  0  0  0  0  0  0  0  0
   18.2421   12.3479   11.2533 C   0  0  0  0  0  0  0  0  0  0  0  0
   17.4801   13.1353   11.8166 O   0  0  0  0  0  0  0  0  0  0  0  0
   19.7832   12.6002   11.1381 C   0  0  2  0  0  0  0  0  0  0  0  0
   20.1663   13.9413   10.4919 C   0  0  0  0  0  0  0  0  0  0  0  0
   20.2872   11.5169   10.3482 O   0  0  0  0  0  0  0  0  0  0  0  0
   21.6999   11.3396   10.3571 C   0  0  0  0  0  0  0  0  0  0  0  0
   20.3855   12.7875   12.5316 C   0  0  0  0  0  0  0  0  0  0  0  0
   21.3742   12.2155   12.9596 O   0  0  0  0  0  0  0  0  0  0  0  0
   19.8044   13.7566   13.2648 O   0  0  0  0  0  0  0  0  0  0  0  0
  1  2  1  0
  2  3  1  0
  3  4  2  0
  4  5  1  0
  5  6  2  0
  6  7  1  0
  6  8  1  0
  8  9  2  0
  9 10  1  0
 10 11  1  0
 11 12  2  0
 11 13  1  0
 13 14  1  6
 13 15  1  0
 15 16  1  0
 13 17  1  0
 17 18  2  0
 17 19  1  0
  9  3  1  0
M  END
>  <HIPPO ID>  (423) 
115099

>  <alias>  (423) 
None

>  <ref_mols>  (423) 
c0692a,c1116a

>  <submitter_email>  (423) 
None

>  <ref_pdb>  (423) 
c0270a

>  <inchikey>  (423) 
PQEQILYYKWEDTD-LBPRGKRZSA-N

>  <generation_date>  (423) 
None

>  <original ID>  (423) 
PQEQILYYKWEDTD-LBPRGKRZSA-N

>  <tags>  (423) 
[]

>  <exports>  (423) 
nan

>  <method>  (423) 
None

>  <submitter_name>  (423) 
None

>  <original SMILES>  (423) 
CNc1ccc(Br)cc1NC(=O)[C@](C)(OC)C(=O)O

>  <ref_url>  (423) 
None

$$$$
PQEQILYYKWEDTD-GFCCVEGCSA-N
     RDKit          3D

 19 19  0  0  0  0  0  0  0  0999 V2000
   14.9073    9.9103    8.5924 C   0  0  0  0  0  0  0  0  0  0  0  0
   16.2035    9.3781    8.9821 N   0  0  0  0  0  0  0  0  0  0  0  0
   16.1706    9.3044   10.3905 C   0  0  0  0  0  0  0  0  0  0  0  0
   15.3102    8.3230   10.9196 C   0  0  0  0  0  0  0  0  0  0  0  0
   14.8165    8.4655   12.1965 C   0  0  0  0  0  0  0  0  0  0  0  0
   15.1457    9.6172   12.8937 C   0  0  0  0  0  0  0  0  0  0  0  0
   14.3408   10.0262   14.5177 Br  0  0  0  0  0  0  0  0  0  0  0  0
   16.0702   10.5387   12.4239 C   0  0  0  0  0  0  0  0  0  0  0  0
   16.6519   10.3647   11.1845 C   0  0  0  0  0  0  0  0  0  0  0  0
   17.7568   11.1524   10.7703 N   0  0  0  0  0  0  0  0  0  0  0  0
   18.2504   12.2781   11.4355 C   0  0  0  0  0  0  0  0  0  0  0  0
   17.5519   12.9659   12.1823 O   0  0  0  0  0  0  0  0  0  0  0  0
   19.7568   12.6222   11.1795 C   0  0  1  0  0  0  0  0  0  0  0  0
   20.5492   12.7282   12.4907 C   0  0  0  0  0  0  0  0  0  0  0  0
   20.2752   11.5648   10.3641 O   0  0  0  0  0  0  0  0  0  0  0  0
   21.6952   11.5339   10.2320 C   0  0  0  0  0  0  0  0  0  0  0  0
   19.8663   14.0431   10.5930 C   0  0  0  0  0  0  0  0  0  0  0  0
   20.1842   14.3488    9.4522 O   0  0  0  0  0  0  0  0  0  0  0  0
   19.5972   15.0305   11.4760 O   0  0  0  0  0  0  0  0  0  0  0  0
  1  2  1  0
  2  3  1  0
  3  4  2  0
  4  5  1  0
  5  6  2  0
  6  7  1  0
  6  8  1  0
  8  9  2  0
  9 10  1  0
 10 11  1  0
 11 12  2  0
 11 13  1  0
 13 14  1  1
 13 15  1  0
 15 16  1  0
 13 17  1  0
 17 18  2  0
 17 19  1  0
  9  3  1  0
M  END
>  <HIPPO ID>  (424) 
115100

>  <alias>  (424) 
None

>  <ref_mols>  (424) 
c0692a,c1116a

>  <submitter_email>  (424) 
None

>  <ref_pdb>  (424) 
c0270a

>  <inchikey>  (424) 
PQEQILYYKWEDTD-GFCCVEGCSA-N

>  <generation_date>  (424) 
None

>  <original ID>  (424) 
PQEQILYYKWEDTD-GFCCVEGCSA-N

>  <tags>  (424) 
[]

>  <exports>  (424) 
nan

>  <method>  (424) 
None

>  <submitter_name>  (424) 
None

>  <original SMILES>  (424) 
CNc1ccc(Br)cc1NC(=O)[C@@](C)(OC)C(=O)O

>  <ref_url>  (424) 
None

$$$$
JQYVCOLHBYROSB-NSHDSACASA-N
     RDKit          3D

 19 19  0  0  0  0  0  0  0  0999 V2000
   21.7293   11.3676   10.4661 C   0  0  0  0  0  0  0  0  0  0  0  0
   20.3141   11.4787   10.4654 O   0  0  0  0  0  0  0  0  0  0  0  0
   19.7517   12.5806   11.1747 C   0  0  2  0  0  0  0  0  0  0  0  0
   20.1498   13.9099   10.5115 C   0  0  0  0  0  0  0  0  0  0  0  0
   20.1592   12.9091   12.6101 C   0  0  0  0  0  0  0  0  0  0  0  0
   19.4963   13.5962   13.3695 O   0  0  0  0  0  0  0  0  0  0  0  0
   21.3964   12.5099   12.9551 O   0  0  0  0  0  0  0  0  0  0  0  0
   18.2000   12.3083   11.1885 C   0  0  0  0  0  0  0  0  0  0  0  0
   17.3812   13.0803   11.6935 O   0  0  0  0  0  0  0  0  0  0  0  0
   17.8076   11.1210   10.5855 N   0  0  0  0  0  0  0  0  0  0  0  0
   16.6043   10.4008   10.7726 C   0  0  0  0  0  0  0  0  0  0  0  0
   16.2069    9.5507    9.7344 C   0  0  0  0  0  0  0  0  0  0  0  0
   15.2337    8.5764    9.9170 C   0  0  0  0  0  0  0  0  0  0  0  0
   14.7224    8.3573   11.1834 C   0  0  0  0  0  0  0  0  0  0  0  0
   13.6626    6.5427   11.4144 I   0  0  0  0  0  0  0  0  0  0  0  0
   15.0272    9.2723   12.2039 C   0  0  0  0  0  0  0  0  0  0  0  0
   14.3836    9.1492   13.7991 Cl  0  0  0  0  0  0  0  0  0  0  0  0
   15.9075   10.3600   11.9892 C   0  0  0  0  0  0  0  0  0  0  0  0
   16.2943   11.1651   13.0975 N   0  0  0  0  0  0  0  0  0  0  0  0
  1  2  1  0
  3  2  1  0
  3  4  1  6
  3  5  1  0
  5  6  2  0
  5  7  1  0
  3  8  1  0
  8  9  2  0
  8 10  1  0
 10 11  1  0
 11 12  2  0
 12 13  1  0
 13 14  2  0
 14 15  1  0
 14 16  1  0
 16 17  1  0
 16 18  2  0
 18 19  1  0
 18 11  1  0
M  END
>  <HIPPO ID>  (425) 
115101

>  <alias>  (425) 
None

>  <ref_mols>  (425) 
c0692a,c1116a

>  <submitter_email>  (425) 
None

>  <ref_pdb>  (425) 
c0270a

>  <inchikey>  (425) 
JQYVCOLHBYROSB-NSHDSACASA-N

>  <generation_date>  (425) 
None

>  <original ID>  (425) 
JQYVCOLHBYROSB-NSHDSACASA-N

>  <tags>  (425) 
[]

>  <exports>  (425) 
nan

>  <method>  (425) 
None

>  <submitter_name>  (425) 
None

>  <original SMILES>  (425) 
CO[C@](C)(C(=O)O)C(=O)Nc1ccc(I)c(Cl)c1N

>  <ref_url>  (425) 
None

$$$$
JQYVCOLHBYROSB-LLVKDONJSA-N
     RDKit          3D

 19 19  0  0  0  0  0  0  0  0999 V2000
   21.7552   11.1250   10.5553 C   0  0  0  0  0  0  0  0  0  0  0  0
   20.3520   11.2737   10.7091 O   0  0  0  0  0  0  0  0  0  0  0  0
   19.8690   12.5493   11.1608 C   0  0  1  0  0  0  0  0  0  0  0  0
   20.3861   12.8969   12.5670 C   0  0  0  0  0  0  0  0  0  0  0  0
   20.3185   13.7635   10.3286 C   0  0  0  0  0  0  0  0  0  0  0  0
   19.6617   14.6700    9.8558 O   0  0  0  0  0  0  0  0  0  0  0  0
   21.6546   13.8205   10.1401 O   0  0  0  0  0  0  0  0  0  0  0  0
   18.3110   12.3439   11.2414 C   0  0  0  0  0  0  0  0  0  0  0  0
   17.5641   13.1200   11.8433 O   0  0  0  0  0  0  0  0  0  0  0  0
   17.8372   11.2067   10.5917 N   0  0  0  0  0  0  0  0  0  0  0  0
   16.6400   10.4753   10.7963 C   0  0  0  0  0  0  0  0  0  0  0  0
   16.2538    9.6078    9.7647 C   0  0  0  0  0  0  0  0  0  0  0  0
   15.2855    8.6274    9.9424 C   0  0  0  0  0  0  0  0  0  0  0  0
   14.7597    8.4190   11.2030 C   0  0  0  0  0  0  0  0  0  0  0  0
   13.7154    6.5951   11.4385 I   0  0  0  0  0  0  0  0  0  0  0  0
   15.0482    9.3477   12.2164 C   0  0  0  0  0  0  0  0  0  0  0  0
   14.3807    9.2391   13.8031 Cl  0  0  0  0  0  0  0  0  0  0  0  0
   15.9308   10.4377   12.0041 C   0  0  0  0  0  0  0  0  0  0  0  0
   16.3016   11.2480   13.1123 N   0  0  0  0  0  0  0  0  0  0  0  0
  1  2  1  0
  3  2  1  0
  3  4  1  1
  3  5  1  0
  5  6  2  0
  5  7  1  0
  3  8  1  0
  8  9  2  0
  8 10  1  0
 10 11  1  0
 11 12  2  0
 12 13  1  0
 13 14  2  0
 14 15  1  0
 14 16  1  0
 16 17  1  0
 16 18  2  0
 18 19  1  0
 18 11  1  0
M  END
>  <HIPPO ID>  (426) 
115102

>  <alias>  (426) 
None

>  <ref_mols>  (426) 
c0692a,c1116a

>  <submitter_email>  (426) 
None

>  <ref_pdb>  (426) 
c0270a

>  <inchikey>  (426) 
JQYVCOLHBYROSB-LLVKDONJSA-N

>  <generation_date>  (426) 
None

>  <original ID>  (426) 
JQYVCOLHBYROSB-LLVKDONJSA-N

>  <tags>  (426) 
[]

>  <exports>  (426) 
nan

>  <method>  (426) 
None

>  <submitter_name>  (426) 
None

>  <original SMILES>  (426) 
CO[C@@](C)(C(=O)O)C(=O)Nc1ccc(I)c(Cl)c1N

>  <ref_url>  (426) 
None

$$$$
NKMHGJOAWHLFDB-UHFFFAOYSA-N
     RDKit          3D

 19 19  0  0  0  0  0  0  0  0999 V2000
   23.2181   11.1177    9.5278 C   0  0  0  0  0  0  0  0  0  0  0  0
   22.6553   11.0096   10.5783 C   0  0  0  0  0  0  0  0  0  0  0  0
   21.9931   11.1498   11.8567 C   0  0  0  0  0  0  0  0  0  0  0  0
   21.8247   12.6413   12.0872 C   0  0  0  0  0  0  0  0  0  0  0  0
   21.0514   13.2905   10.9316 C   0  0  0  0  0  0  0  0  0  0  0  0
   19.8144   12.6127   10.6771 O   0  0  0  0  0  0  0  0  0  0  0  0
   18.8667   12.9984   11.6444 C   0  0  0  0  0  0  0  0  0  0  0  0
   17.5133   12.3434   11.5445 C   0  0  0  0  0  0  0  0  0  0  0  0
   16.5624   12.8556   12.1401 O   0  0  0  0  0  0  0  0  0  0  0  0
   17.4557   11.1798   10.8150 N   0  0  0  0  0  0  0  0  0  0  0  0
   16.3838   10.2700   10.8830 C   0  0  0  0  0  0  0  0  0  0  0  0
   16.0658    9.5298    9.7355 C   0  0  0  0  0  0  0  0  0  0  0  0
   15.0591    8.5687    9.7547 C   0  0  0  0  0  0  0  0  0  0  0  0
   14.4516    8.2594   10.9478 C   0  0  0  0  0  0  0  0  0  0  0  0
   13.4975    7.3185   10.9788 F   0  0  0  0  0  0  0  0  0  0  0  0
   14.7801    8.9781   12.0878 C   0  0  0  0  0  0  0  0  0  0  0  0
   14.1509    8.7599   13.2438 F   0  0  0  0  0  0  0  0  0  0  0  0
   15.6846   10.0303   12.0743 C   0  0  0  0  0  0  0  0  0  0  0  0
   15.9946   10.6431   13.3199 N   0  0  0  0  0  0  0  0  0  0  0  0
  1  2  3  0
  2  3  1  0
  3  4  1  0
  4  5  1  0
  5  6  1  0
  6  7  1  0
  7  8  1  0
  8  9  2  0
  8 10  1  0
 10 11  1  0
 11 12  2  0
 12 13  1  0
 13 14  2  0
 14 15  1  0
 14 16  1  0
 16 17  1  0
 16 18  2  0
 18 19  1  0
 18 11  1  0
M  END
>  <HIPPO ID>  (427) 
115114

>  <alias>  (427) 
None

>  <ref_mols>  (427) 
c0692a,c1116a

>  <submitter_email>  (427) 
None

>  <ref_pdb>  (427) 
c0270a

>  <inchikey>  (427) 
NKMHGJOAWHLFDB-UHFFFAOYSA-N

>  <generation_date>  (427) 
None

>  <original ID>  (427) 
NKMHGJOAWHLFDB-UHFFFAOYSA-N

>  <tags>  (427) 
[]

>  <exports>  (427) 
nan

>  <method>  (427) 
None

>  <submitter_name>  (427) 
None

>  <original SMILES>  (427) 
C#CCCCOCC(=O)Nc1ccc(F)c(F)c1N

>  <ref_url>  (427) 
None

$$$$
CXLFAIFRRLZBJP-UHFFFAOYSA-N
     RDKit          3D

 19 19  0  0  0  0  0  0  0  0999 V2000
   21.3906   15.4785   13.3133 C   0  0  0  0  0  0  0  0  0  0  0  0
   21.6804   14.7513   12.4029 C   0  0  0  0  0  0  0  0  0  0  0  0
   22.0503   13.8602   11.2933 C   0  0  0  0  0  0  0  0  0  0  0  0
   22.1049   12.3877   11.7216 C   0  0  0  0  0  0  0  0  0  0  0  0
   21.4667   11.4636   10.6849 C   0  0  0  0  0  0  0  0  0  0  0  0
   20.0565   11.2586   10.8123 O   0  0  0  0  0  0  0  0  0  0  0  0
   19.2860   12.3937   11.1698 C   0  0  0  0  0  0  0  0  0  0  0  0
   17.8282   12.0282   11.3883 C   0  0  0  0  0  0  0  0  0  0  0  0
   17.1396   12.6473   12.1974 O   0  0  0  0  0  0  0  0  0  0  0  0
   17.3829   10.9974   10.5930 N   0  0  0  0  0  0  0  0  0  0  0  0
   16.2607   10.1980   10.8464 C   0  0  0  0  0  0  0  0  0  0  0  0
   15.6879   10.1502   12.1016 C   0  0  0  0  0  0  0  0  0  0  0  0
   14.7623    9.1677   12.3627 C   0  0  0  0  0  0  0  0  0  0  0  0
   14.1604    9.2216   13.5497 F   0  0  0  0  0  0  0  0  0  0  0  0
   14.4119    8.2176   11.4058 C   0  0  0  0  0  0  0  0  0  0  0  0
   13.5002    7.2697   11.6655 F   0  0  0  0  0  0  0  0  0  0  0  0
   14.9020    8.3229   10.1264 C   0  0  0  0  0  0  0  0  0  0  0  0
   15.7811    9.3551    9.8291 C   0  0  0  0  0  0  0  0  0  0  0  0
   16.2752    9.4227    8.5359 N   0  0  0  0  0  0  0  0  0  0  0  0
  1  2  3  0
  2  3  1  0
  3  4  1  0
  4  5  1  0
  5  6  1  0
  6  7  1  0
  7  8  1  0
  8  9  2  0
  8 10  1  0
 10 11  1  0
 11 12  2  0
 12 13  1  0
 13 14  1  0
 13 15  2  0
 15 16  1  0
 15 17  1  0
 17 18  2  0
 18 19  1  0
 18 11  1  0
M  END
>  <HIPPO ID>  (428) 
115116

>  <alias>  (428) 
None

>  <ref_mols>  (428) 
c0692a,c1116a

>  <submitter_email>  (428) 
None

>  <ref_pdb>  (428) 
c0270a

>  <inchikey>  (428) 
CXLFAIFRRLZBJP-UHFFFAOYSA-N

>  <generation_date>  (428) 
None

>  <original ID>  (428) 
CXLFAIFRRLZBJP-UHFFFAOYSA-N

>  <tags>  (428) 
[]

>  <exports>  (428) 
nan

>  <method>  (428) 
None

>  <submitter_name>  (428) 
None

>  <original SMILES>  (428) 
C#CCCCOCC(=O)Nc1cc(F)c(F)cc1N

>  <ref_url>  (428) 
None

$$$$
WHBDHCXWIKGPLX-UHFFFAOYSA-N
     RDKit          3D

 19 19  0  0  0  0  0  0  0  0999 V2000
   24.8481   13.1274   11.8731 C   0  0  0  0  0  0  0  0  0  0  0  0
   23.9229   13.4347   11.1766 C   0  0  0  0  0  0  0  0  0  0  0  0
   22.8058   13.9171   10.3840 C   0  0  0  0  0  0  0  0  0  0  0  0
   21.8484   12.8538    9.9150 C   0  0  0  0  0  0  0  0  0  0  0  0
   21.3736   11.8243   10.9344 C   0  0  0  0  0  0  0  0  0  0  0  0
   19.9795   11.5199   10.7386 O   0  0  0  0  0  0  0  0  0  0  0  0
   19.1309   12.5004   11.3253 C   0  0  0  0  0  0  0  0  0  0  0  0
   17.7399   11.9592   11.6550 C   0  0  0  0  0  0  0  0  0  0  0  0
   17.1632   12.3192   12.6808 O   0  0  0  0  0  0  0  0  0  0  0  0
   17.2120   11.0978   10.7211 N   0  0  0  0  0  0  0  0  0  0  0  0
   16.1470   10.2028   10.9318 C   0  0  0  0  0  0  0  0  0  0  0  0
   15.7585    9.8021   12.1933 C   0  0  0  0  0  0  0  0  0  0  0  0
   14.8731    8.7458   12.3161 C   0  0  0  0  0  0  0  0  0  0  0  0
   14.3996    8.5142   13.5367 F   0  0  0  0  0  0  0  0  0  0  0  0
   14.4217    8.0238   11.2154 C   0  0  0  0  0  0  0  0  0  0  0  0
   13.3833    6.4511   11.3738 Br  0  0  0  0  0  0  0  0  0  0  0  0
   14.6582    8.5379    9.9594 C   0  0  0  0  0  0  0  0  0  0  0  0
   15.4702    9.6644    9.8276 C   0  0  0  0  0  0  0  0  0  0  0  0
   15.3902   10.3882    8.6453 N   0  0  0  0  0  0  0  0  0  0  0  0
  1  2  3  0
  2  3  1  0
  3  4  1  0
  4  5  1  0
  5  6  1  0
  6  7  1  0
  7  8  1  0
  8  9  2  0
  8 10  1  0
 10 11  1  0
 11 12  2  0
 12 13  1  0
 13 14  1  0
 13 15  2  0
 15 16  1  0
 15 17  1  0
 17 18  2  0
 18 19  1  0
 18 11  1  0
M  END
>  <HIPPO ID>  (429) 
115118

>  <alias>  (429) 
None

>  <ref_mols>  (429) 
c0692a,c1116a

>  <submitter_email>  (429) 
None

>  <ref_pdb>  (429) 
c0270a

>  <inchikey>  (429) 
WHBDHCXWIKGPLX-UHFFFAOYSA-N

>  <generation_date>  (429) 
None

>  <original ID>  (429) 
WHBDHCXWIKGPLX-UHFFFAOYSA-N

>  <tags>  (429) 
[]

>  <exports>  (429) 
nan

>  <method>  (429) 
None

>  <submitter_name>  (429) 
None

>  <original SMILES>  (429) 
C#CCCCOCC(=O)Nc1cc(F)c(Br)cc1N

>  <ref_url>  (429) 
None

$$$$
XSXLBQRUMBPZOV-ZDUSSCGKSA-N
     RDKit          3D

 19 19  0  0  0  0  0  0  0  0999 V2000
   21.5981   11.2972   10.4988 C   0  0  0  0  0  0  0  0  0  0  0  0
   20.1853   11.4397   10.5099 O   0  0  0  0  0  0  0  0  0  0  0  0
   19.6544   12.5815   11.1762 C   0  0  2  0  0  0  0  0  0  0  0  0
   20.1156   13.8782   10.4839 C   0  0  0  0  0  0  0  0  0  0  0  0
   20.0719   12.9616   12.6048 C   0  0  0  0  0  0  0  0  0  0  0  0
   19.4415   13.7001   13.3457 O   0  0  0  0  0  0  0  0  0  0  0  0
   21.3029   12.5364   12.9517 O   0  0  0  0  0  0  0  0  0  0  0  0
   18.0883   12.3617   11.1905 C   0  0  0  0  0  0  0  0  0  0  0  0
   17.3147   13.2297   11.5949 O   0  0  0  0  0  0  0  0  0  0  0  0
   17.6408   11.1285   10.7223 N   0  0  0  0  0  0  0  0  0  0  0  0
   16.4535   10.4057   11.0617 C   0  0  0  0  0  0  0  0  0  0  0  0
   16.0026    9.4286   10.1377 C   0  0  0  0  0  0  0  0  0  0  0  0
   16.2456    9.5311    8.7757 N   0  0  0  0  0  0  0  0  0  0  0  0
   15.1108    8.4269   10.5159 C   0  0  0  0  0  0  0  0  0  0  0  0
   14.6462    8.3811   11.8099 C   0  0  0  0  0  0  0  0  0  0  0  0
   14.9478    9.4249   12.6910 C   0  0  0  0  0  0  0  0  0  0  0  0
   14.2822    9.4600   14.0273 C   0  0  0  0  0  0  0  0  0  0  0  0
   15.8611   10.4434   12.3368 C   0  0  0  0  0  0  0  0  0  0  0  0
   16.1495   11.5108   13.3509 C   0  0  0  0  0  0  0  0  0  0  0  0
  1  2  1  0
  3  2  1  0
  3  4  1  6
  3  5  1  0
  5  6  2  0
  5  7  1  0
  3  8  1  0
  8  9  2  0
  8 10  1  0
 10 11  1  0
 11 12  2  0
 12 13  1  0
 12 14  1  0
 14 15  2  0
 15 16  1  0
 16 17  1  0
 16 18  2  0
 18 19  1  0
 18 11  1  0
M  END
>  <HIPPO ID>  (430) 
115126

>  <alias>  (430) 
None

>  <ref_mols>  (430) 
c0692a,c1116a

>  <submitter_email>  (430) 
None

>  <ref_pdb>  (430) 
c0270a

>  <inchikey>  (430) 
XSXLBQRUMBPZOV-ZDUSSCGKSA-N

>  <generation_date>  (430) 
None

>  <original ID>  (430) 
XSXLBQRUMBPZOV-ZDUSSCGKSA-N

>  <tags>  (430) 
[]

>  <exports>  (430) 
nan

>  <method>  (430) 
None

>  <submitter_name>  (430) 
None

>  <original SMILES>  (430) 
CO[C@](C)(C(=O)O)C(=O)Nc1c(N)ccc(C)c1C

>  <ref_url>  (430) 
None

$$$$
XSXLBQRUMBPZOV-CYBMUJFWSA-N
     RDKit          3D

 19 19  0  0  0  0  0  0  0  0999 V2000
   21.6188   11.4889   10.2921 C   0  0  0  0  0  0  0  0  0  0  0  0
   20.1967   11.5387   10.3814 O   0  0  0  0  0  0  0  0  0  0  0  0
   19.6608   12.6293   11.1367 C   0  0  1  0  0  0  0  0  0  0  0  0
   20.3827   12.7681   12.4849 C   0  0  0  0  0  0  0  0  0  0  0  0
   19.8586   14.0314   10.5189 C   0  0  0  0  0  0  0  0  0  0  0  0
   20.2589   14.2995    9.3949 O   0  0  0  0  0  0  0  0  0  0  0  0
   19.5744   15.0547   11.3556 O   0  0  0  0  0  0  0  0  0  0  0  0
   18.1209   12.3448   11.3138 C   0  0  0  0  0  0  0  0  0  0  0  0
   17.3810   13.1843   11.8294 O   0  0  0  0  0  0  0  0  0  0  0  0
   17.6481   11.1312   10.8214 N   0  0  0  0  0  0  0  0  0  0  0  0
   16.4481   10.4193   11.1496 C   0  0  0  0  0  0  0  0  0  0  0  0
   15.9660    9.4893   10.1957 C   0  0  0  0  0  0  0  0  0  0  0  0
   16.4779    9.4138    8.9127 N   0  0  0  0  0  0  0  0  0  0  0  0
   15.0995    8.4603   10.5634 C   0  0  0  0  0  0  0  0  0  0  0  0
   14.6176    8.3986   11.8485 C   0  0  0  0  0  0  0  0  0  0  0  0
   14.9062    9.4318   12.7425 C   0  0  0  0  0  0  0  0  0  0  0  0
   14.2394    9.4386   14.0777 C   0  0  0  0  0  0  0  0  0  0  0  0
   15.8301   10.4487   12.4125 C   0  0  0  0  0  0  0  0  0  0  0  0
   16.1156   11.4892   13.4516 C   0  0  0  0  0  0  0  0  0  0  0  0
  1  2  1  0
  3  2  1  0
  3  4  1  1
  3  5  1  0
  5  6  2  0
  5  7  1  0
  3  8  1  0
  8  9  2  0
  8 10  1  0
 10 11  1  0
 11 12  2  0
 12 13  1  0
 12 14  1  0
 14 15  2  0
 15 16  1  0
 16 17  1  0
 16 18  2  0
 18 19  1  0
 18 11  1  0
M  END
>  <HIPPO ID>  (431) 
115127

>  <alias>  (431) 
None

>  <ref_mols>  (431) 
c0692a,c1116a

>  <submitter_email>  (431) 
None

>  <ref_pdb>  (431) 
c0270a

>  <inchikey>  (431) 
XSXLBQRUMBPZOV-CYBMUJFWSA-N

>  <generation_date>  (431) 
None

>  <original ID>  (431) 
XSXLBQRUMBPZOV-CYBMUJFWSA-N

>  <tags>  (431) 
[]

>  <exports>  (431) 
nan

>  <method>  (431) 
None

>  <submitter_name>  (431) 
None

>  <original SMILES>  (431) 
CO[C@@](C)(C(=O)O)C(=O)Nc1c(N)ccc(C)c1C

>  <ref_url>  (431) 
None

$$$$
ZPFMDZAGGQSCAW-NSHDSACASA-N
     RDKit          3D

 19 19  0  0  0  0  0  0  0  0999 V2000
   21.6418   11.3166   10.4819 C   0  0  0  0  0  0  0  0  0  0  0  0
   20.2261   11.4330   10.5236 O   0  0  0  0  0  0  0  0  0  0  0  0
   19.6881   12.5585   11.2183 C   0  0  2  0  0  0  0  0  0  0  0  0
   20.0907   13.8588   10.5038 C   0  0  0  0  0  0  0  0  0  0  0  0
   20.1584   12.9560   12.6295 C   0  0  0  0  0  0  0  0  0  0  0  0
   19.6291   13.8030   13.3338 O   0  0  0  0  0  0  0  0  0  0  0  0
   21.3319   12.4021   12.9902 O   0  0  0  0  0  0  0  0  0  0  0  0
   18.1317   12.2731   11.2811 C   0  0  0  0  0  0  0  0  0  0  0  0
   17.3490   12.9847   11.9115 O   0  0  0  0  0  0  0  0  0  0  0  0
   17.6834   11.1484   10.5793 N   0  0  0  0  0  0  0  0  0  0  0  0
   16.5084   10.3975   10.8453 C   0  0  0  0  0  0  0  0  0  0  0  0
   15.9264   10.4220   12.0985 C   0  0  0  0  0  0  0  0  0  0  0  0
   15.0257    9.4211   12.4664 C   0  0  0  0  0  0  0  0  0  0  0  0
   14.3697    9.5937   14.2146 Br  0  0  0  0  0  0  0  0  0  0  0  0
   14.6861    8.3901   11.5854 C   0  0  0  0  0  0  0  0  0  0  0  0
   13.7556    6.9916   11.9918 Cl  0  0  0  0  0  0  0  0  0  0  0  0
   15.1277    8.4682   10.2826 C   0  0  0  0  0  0  0  0  0  0  0  0
   15.9970    9.4876    9.9032 C   0  0  0  0  0  0  0  0  0  0  0  0
   16.4153    9.4504    8.5804 N   0  0  0  0  0  0  0  0  0  0  0  0
  1  2  1  0
  3  2  1  0
  3  4  1  6
  3  5  1  0
  5  6  2  0
  5  7  1  0
  3  8  1  0
  8  9  2  0
  8 10  1  0
 10 11  1  0
 11 12  2  0
 12 13  1  0
 13 14  1  0
 13 15  2  0
 15 16  1  0
 15 17  1  0
 17 18  2  0
 18 19  1  0
 18 11  1  0
M  END
>  <HIPPO ID>  (432) 
115130

>  <alias>  (432) 
None

>  <ref_mols>  (432) 
c0692a,c1116a

>  <submitter_email>  (432) 
None

>  <ref_pdb>  (432) 
c0270a

>  <inchikey>  (432) 
ZPFMDZAGGQSCAW-NSHDSACASA-N

>  <generation_date>  (432) 
None

>  <original ID>  (432) 
ZPFMDZAGGQSCAW-NSHDSACASA-N

>  <tags>  (432) 
[]

>  <exports>  (432) 
nan

>  <method>  (432) 
None

>  <submitter_name>  (432) 
None

>  <original SMILES>  (432) 
CO[C@](C)(C(=O)O)C(=O)Nc1cc(Br)c(Cl)cc1N

>  <ref_url>  (432) 
None

$$$$
ZPFMDZAGGQSCAW-LLVKDONJSA-N
     RDKit          3D

 19 19  0  0  0  0  0  0  0  0999 V2000
   21.6586   11.1794   10.6364 C   0  0  0  0  0  0  0  0  0  0  0  0
   20.2534   11.2750   10.8252 O   0  0  0  0  0  0  0  0  0  0  0  0
   19.7279   12.5668   11.1647 C   0  0  1  0  0  0  0  0  0  0  0  0
   20.0920   12.9868   12.6014 C   0  0  0  0  0  0  0  0  0  0  0  0
   20.2771   13.7581   10.3490 C   0  0  0  0  0  0  0  0  0  0  0  0
   19.7333   14.4931    9.5489 O   0  0  0  0  0  0  0  0  0  0  0  0
   21.5937   13.9848   10.5658 O   0  0  0  0  0  0  0  0  0  0  0  0
   18.1680   12.3360   11.1713 C   0  0  0  0  0  0  0  0  0  0  0  0
   17.3989   13.0897   11.7744 O   0  0  0  0  0  0  0  0  0  0  0  0
   17.7029   11.1912   10.5137 N   0  0  0  0  0  0  0  0  0  0  0  0
   16.5252   10.4532   10.8072 C   0  0  0  0  0  0  0  0  0  0  0  0
   15.9462   10.5127   12.0593 C   0  0  0  0  0  0  0  0  0  0  0  0
   15.0505    9.5160   12.4556 C   0  0  0  0  0  0  0  0  0  0  0  0
   14.3911    9.7317   14.1969 Br  0  0  0  0  0  0  0  0  0  0  0  0
   14.7169    8.4559   11.6060 C   0  0  0  0  0  0  0  0  0  0  0  0
   13.8082    7.0558   12.0541 Cl  0  0  0  0  0  0  0  0  0  0  0  0
   15.1512    8.5011   10.3003 C   0  0  0  0  0  0  0  0  0  0  0  0
   16.0114    9.5157    9.8921 C   0  0  0  0  0  0  0  0  0  0  0  0
   16.4196    9.4484    8.5671 N   0  0  0  0  0  0  0  0  0  0  0  0
  1  2  1  0
  3  2  1  0
  3  4  1  1
  3  5  1  0
  5  6  2  0
  5  7  1  0
  3  8  1  0
  8  9  2  0
  8 10  1  0
 10 11  1  0
 11 12  2  0
 12 13  1  0
 13 14  1  0
 13 15  2  0
 15 16  1  0
 15 17  1  0
 17 18  2  0
 18 19  1  0
 18 11  1  0
M  END
>  <HIPPO ID>  (433) 
115131

>  <alias>  (433) 
None

>  <ref_mols>  (433) 
c0692a,c1116a

>  <submitter_email>  (433) 
None

>  <ref_pdb>  (433) 
c0270a

>  <inchikey>  (433) 
ZPFMDZAGGQSCAW-LLVKDONJSA-N

>  <generation_date>  (433) 
None

>  <original ID>  (433) 
ZPFMDZAGGQSCAW-LLVKDONJSA-N

>  <tags>  (433) 
[]

>  <exports>  (433) 
nan

>  <method>  (433) 
None

>  <submitter_name>  (433) 
None

>  <original SMILES>  (433) 
CO[C@@](C)(C(=O)O)C(=O)Nc1cc(Br)c(Cl)cc1N

>  <ref_url>  (433) 
None

$$$$
XYQOUHYUWZPNKR-NSHDSACASA-N
     RDKit          3D

 19 19  0  0  0  0  0  0  0  0999 V2000
   21.6245   11.2932   10.3453 C   0  0  0  0  0  0  0  0  0  0  0  0
   20.2091   11.4573   10.3592 O   0  0  0  0  0  0  0  0  0  0  0  0
   19.7074   12.5253   11.1732 C   0  0  2  0  0  0  0  0  0  0  0  0
   20.0701   13.8736   10.5316 C   0  0  0  0  0  0  0  0  0  0  0  0
   20.3621   12.7315   12.5419 C   0  0  0  0  0  0  0  0  0  0  0  0
   21.3839   12.1889   12.9300 O   0  0  0  0  0  0  0  0  0  0  0  0
   19.7898   13.6987   13.2848 O   0  0  0  0  0  0  0  0  0  0  0  0
   18.1606   12.2359   11.3281 C   0  0  0  0  0  0  0  0  0  0  0  0
   17.4223   12.9163   12.0407 O   0  0  0  0  0  0  0  0  0  0  0  0
   17.6720   11.1437   10.6011 N   0  0  0  0  0  0  0  0  0  0  0  0
   16.4976   10.3895   10.8677 C   0  0  0  0  0  0  0  0  0  0  0  0
   15.9018   10.4064   12.1156 C   0  0  0  0  0  0  0  0  0  0  0  0
   14.9971    9.4030   12.4705 C   0  0  0  0  0  0  0  0  0  0  0  0
   14.3410    9.5636   14.0404 Cl  0  0  0  0  0  0  0  0  0  0  0  0
   14.6827    8.3658   11.5863 C   0  0  0  0  0  0  0  0  0  0  0  0
   13.6956    6.7979   12.0145 Br  0  0  0  0  0  0  0  0  0  0  0  0
   15.1325    8.4542   10.2864 C   0  0  0  0  0  0  0  0  0  0  0  0
   15.9920    9.4852    9.9160 C   0  0  0  0  0  0  0  0  0  0  0  0
   16.4136    9.4576    8.5941 N   0  0  0  0  0  0  0  0  0  0  0  0
  1  2  1  0
  3  2  1  0
  3  4  1  6
  3  5  1  0
  5  6  2  0
  5  7  1  0
  3  8  1  0
  8  9  2  0
  8 10  1  0
 10 11  1  0
 11 12  2  0
 12 13  1  0
 13 14  1  0
 13 15  2  0
 15 16  1  0
 15 17  1  0
 17 18  2  0
 18 19  1  0
 18 11  1  0
M  END
>  <HIPPO ID>  (434) 
115132

>  <alias>  (434) 
None

>  <ref_mols>  (434) 
c0692a,c1116a

>  <submitter_email>  (434) 
None

>  <ref_pdb>  (434) 
c0270a

>  <inchikey>  (434) 
XYQOUHYUWZPNKR-NSHDSACASA-N

>  <generation_date>  (434) 
None

>  <original ID>  (434) 
XYQOUHYUWZPNKR-NSHDSACASA-N

>  <tags>  (434) 
[]

>  <exports>  (434) 
nan

>  <method>  (434) 
None

>  <submitter_name>  (434) 
None

>  <original SMILES>  (434) 
CO[C@](C)(C(=O)O)C(=O)Nc1cc(Cl)c(Br)cc1N

>  <ref_url>  (434) 
None

$$$$
XYQOUHYUWZPNKR-LLVKDONJSA-N
     RDKit          3D

 19 19  0  0  0  0  0  0  0  0999 V2000
   21.6129   11.4493   10.2439 C   0  0  0  0  0  0  0  0  0  0  0  0
   20.1939   11.4999   10.3820 O   0  0  0  0  0  0  0  0  0  0  0  0
   19.6897   12.5485   11.2167 C   0  0  1  0  0  0  0  0  0  0  0  0
   20.5377   12.6880   12.4931 C   0  0  0  0  0  0  0  0  0  0  0  0
   19.7906   13.9665   10.6286 C   0  0  0  0  0  0  0  0  0  0  0  0
   20.1791   14.2799    9.5119 O   0  0  0  0  0  0  0  0  0  0  0  0
   19.4591   14.9484   11.4963 O   0  0  0  0  0  0  0  0  0  0  0  0
   18.1865   12.1819   11.5227 C   0  0  0  0  0  0  0  0  0  0  0  0
   17.5462   12.7608   12.4020 O   0  0  0  0  0  0  0  0  0  0  0  0
   17.6281   11.1676   10.7374 N   0  0  0  0  0  0  0  0  0  0  0  0
   16.4598   10.4013   11.0203 C   0  0  0  0  0  0  0  0  0  0  0  0
   15.8472   10.4232   12.2598 C   0  0  0  0  0  0  0  0  0  0  0  0
   14.9485    9.4147   12.6152 C   0  0  0  0  0  0  0  0  0  0  0  0
   14.2663    9.5836   14.1713 Cl  0  0  0  0  0  0  0  0  0  0  0  0
   14.6517    8.3673   11.7407 C   0  0  0  0  0  0  0  0  0  0  0  0
   13.6688    6.7956   12.1681 Br  0  0  0  0  0  0  0  0  0  0  0  0
   15.1131    8.4492   10.4467 C   0  0  0  0  0  0  0  0  0  0  0  0
   15.9735    9.4824   10.0730 C   0  0  0  0  0  0  0  0  0  0  0  0
   16.4791    9.4011    8.7993 N   0  0  0  0  0  0  0  0  0  0  0  0
  1  2  1  0
  3  2  1  0
  3  4  1  1
  3  5  1  0
  5  6  2  0
  5  7  1  0
  3  8  1  0
  8  9  2  0
  8 10  1  0
 10 11  1  0
 11 12  2  0
 12 13  1  0
 13 14  1  0
 13 15  2  0
 15 16  1  0
 15 17  1  0
 17 18  2  0
 18 19  1  0
 18 11  1  0
M  END
>  <HIPPO ID>  (435) 
115133

>  <alias>  (435) 
None

>  <ref_mols>  (435) 
c0692a,c1116a

>  <submitter_email>  (435) 
None

>  <ref_pdb>  (435) 
c0270a

>  <inchikey>  (435) 
XYQOUHYUWZPNKR-LLVKDONJSA-N

>  <generation_date>  (435) 
None

>  <original ID>  (435) 
XYQOUHYUWZPNKR-LLVKDONJSA-N

>  <tags>  (435) 
[]

>  <exports>  (435) 
nan

>  <method>  (435) 
None

>  <submitter_name>  (435) 
None

>  <original SMILES>  (435) 
CO[C@@](C)(C(=O)O)C(=O)Nc1cc(Cl)c(Br)cc1N

>  <ref_url>  (435) 
None

$$$$
OWRUFZAULFUMJJ-UHFFFAOYSA-N
     RDKit          3D

 19 19  0  0  0  0  0  0  0  0999 V2000
   19.6669   14.8898   12.9946 C   0  0  0  0  0  0  0  0  0  0  0  0
   20.6752   14.2959   12.7157 C   0  0  0  0  0  0  0  0  0  0  0  0
   21.8856   13.5102   12.3934 C   0  0  0  0  0  0  0  0  0  0  0  0
   21.9329   12.9745   10.9469 C   0  0  0  0  0  0  0  0  0  0  0  0
   21.3472   11.5611   10.7610 C   0  0  0  0  0  0  0  0  0  0  0  0
   19.9685   11.5020   10.3674 O   0  0  0  0  0  0  0  0  0  0  0  0
   19.1480   12.3428   11.1403 C   0  0  0  0  0  0  0  0  0  0  0  0
   17.7026   11.9655   11.3218 C   0  0  0  0  0  0  0  0  0  0  0  0
   16.9965   12.5715   12.1264 O   0  0  0  0  0  0  0  0  0  0  0  0
   17.3044   10.9139   10.5441 N   0  0  0  0  0  0  0  0  0  0  0  0
   16.2112   10.0952   10.8280 C   0  0  0  0  0  0  0  0  0  0  0  0
   15.7441    9.9824   12.1230 C   0  0  0  0  0  0  0  0  0  0  0  0
   14.8437    8.9852   12.4274 C   0  0  0  0  0  0  0  0  0  0  0  0
   14.2800    8.9538   14.2131 Br  0  0  0  0  0  0  0  0  0  0  0  0
   14.3950    8.1094   11.4400 C   0  0  0  0  0  0  0  0  0  0  0  0
   13.4824    7.1628   11.7035 F   0  0  0  0  0  0  0  0  0  0  0  0
   14.7994    8.2728   10.1283 C   0  0  0  0  0  0  0  0  0  0  0  0
   15.6746    9.3023    9.8109 C   0  0  0  0  0  0  0  0  0  0  0  0
   16.1366    9.4133    8.5092 N   0  0  0  0  0  0  0  0  0  0  0  0
  1  2  3  0
  2  3  1  0
  3  4  1  0
  4  5  1  0
  5  6  1  0
  6  7  1  0
  7  8  1  0
  8  9  2  0
  8 10  1  0
 10 11  1  0
 11 12  2  0
 12 13  1  0
 13 14  1  0
 13 15  2  0
 15 16  1  0
 15 17  1  0
 17 18  2  0
 18 19  1  0
 18 11  1  0
M  END
>  <HIPPO ID>  (436) 
115136

>  <alias>  (436) 
None

>  <ref_mols>  (436) 
c0692a,c1116a

>  <submitter_email>  (436) 
None

>  <ref_pdb>  (436) 
c0270a

>  <inchikey>  (436) 
OWRUFZAULFUMJJ-UHFFFAOYSA-N

>  <generation_date>  (436) 
None

>  <original ID>  (436) 
OWRUFZAULFUMJJ-UHFFFAOYSA-N

>  <tags>  (436) 
[]

>  <exports>  (436) 
nan

>  <method>  (436) 
None

>  <submitter_name>  (436) 
None

>  <original SMILES>  (436) 
C#CCCCOCC(=O)Nc1cc(Br)c(F)cc1N

>  <ref_url>  (436) 
None

$$$$
VXJPSVWYQXMCBW-UHFFFAOYSA-N
     RDKit          3D

 19 19  0  0  0  0  0  0  0  0999 V2000
   24.0425   13.5956    7.4340 C   0  0  0  0  0  0  0  0  0  0  0  0
   23.3204   13.5328    8.3894 C   0  0  0  0  0  0  0  0  0  0  0  0
   22.4920   13.3424    9.5823 C   0  0  0  0  0  0  0  0  0  0  0  0
   22.4277   11.8653    9.9486 C   0  0  0  0  0  0  0  0  0  0  0  0
   21.4466   11.5322   11.0569 C   0  0  0  0  0  0  0  0  0  0  0  0
   20.0934   11.5211   10.5893 O   0  0  0  0  0  0  0  0  0  0  0  0
   19.3024   12.5326   11.1854 C   0  0  0  0  0  0  0  0  0  0  0  0
   17.8093   12.2128   11.2724 C   0  0  0  0  0  0  0  0  0  0  0  0
   17.0523   13.0188   11.8129 O   0  0  0  0  0  0  0  0  0  0  0  0
   17.4237   11.0234   10.7024 N   0  0  0  0  0  0  0  0  0  0  0  0
   16.2845   10.2372   11.0085 C   0  0  0  0  0  0  0  0  0  0  0  0
   15.7984    9.3943    9.9827 C   0  0  0  0  0  0  0  0  0  0  0  0
   16.2489    9.4822    8.6661 N   0  0  0  0  0  0  0  0  0  0  0  0
   14.9713    8.3184   10.2818 C   0  0  0  0  0  0  0  0  0  0  0  0
   14.5373    8.1271   11.5765 C   0  0  0  0  0  0  0  0  0  0  0  0
   14.8618    9.0616   12.5681 C   0  0  0  0  0  0  0  0  0  0  0  0
   14.2663    8.9115   13.9291 C   0  0  0  0  0  0  0  0  0  0  0  0
   15.7448   10.1273   12.3033 C   0  0  0  0  0  0  0  0  0  0  0  0
   16.0691   11.0680   13.4298 C   0  0  0  0  0  0  0  0  0  0  0  0
  1  2  3  0
  2  3  1  0
  3  4  1  0
  4  5  1  0
  5  6  1  0
  6  7  1  0
  7  8  1  0
  8  9  2  0
  8 10  1  0
 10 11  1  0
 11 12  2  0
 12 13  1  0
 12 14  1  0
 14 15  2  0
 15 16  1  0
 16 17  1  0
 16 18  2  0
 18 19  1  0
 18 11  1  0
M  END
>  <HIPPO ID>  (437) 
115140

>  <alias>  (437) 
None

>  <ref_mols>  (437) 
c0692a,c1116a

>  <submitter_email>  (437) 
None

>  <ref_pdb>  (437) 
c0270a

>  <inchikey>  (437) 
VXJPSVWYQXMCBW-UHFFFAOYSA-N

>  <generation_date>  (437) 
None

>  <original ID>  (437) 
VXJPSVWYQXMCBW-UHFFFAOYSA-N

>  <tags>  (437) 
[]

>  <exports>  (437) 
nan

>  <method>  (437) 
None

>  <submitter_name>  (437) 
None

>  <original SMILES>  (437) 
C#CCCCOCC(=O)Nc1c(N)ccc(C)c1C

>  <ref_url>  (437) 
None

$$$$
LFPOZYOZZGLZSG-UHFFFAOYSA-N
     RDKit          3D

 19 19  0  0  0  0  0  0  0  0999 V2000
   23.3536   13.2632    7.0983 C   0  0  0  0  0  0  0  0  0  0  0  0
   22.7291   13.4561    8.1057 C   0  0  0  0  0  0  0  0  0  0  0  0
   22.0323   13.7236    9.3669 C   0  0  0  0  0  0  0  0  0  0  0  0
   22.2389   12.6379   10.4218 C   0  0  0  0  0  0  0  0  0  0  0  0
   21.3765   11.3824   10.3520 C   0  0  0  0  0  0  0  0  0  0  0  0
   19.9694   11.5848   10.2145 O   0  0  0  0  0  0  0  0  0  0  0  0
   19.3738   12.4254   11.1855 C   0  0  0  0  0  0  0  0  0  0  0  0
   17.9172   12.0396   11.4530 C   0  0  0  0  0  0  0  0  0  0  0  0
   17.2810   12.6001   12.3438 O   0  0  0  0  0  0  0  0  0  0  0  0
   17.4205   11.0499   10.6262 N   0  0  0  0  0  0  0  0  0  0  0  0
   16.3042   10.2313   10.8820 C   0  0  0  0  0  0  0  0  0  0  0  0
   15.7786   10.1252   12.1549 C   0  0  0  0  0  0  0  0  0  0  0  0
   14.9086    9.0859   12.4603 C   0  0  0  0  0  0  0  0  0  0  0  0
   14.3180    9.0983   14.2425 Br  0  0  0  0  0  0  0  0  0  0  0  0
   14.5398    8.1486   11.4919 C   0  0  0  0  0  0  0  0  0  0  0  0
   13.5638    6.7570   11.7958 Cl  0  0  0  0  0  0  0  0  0  0  0  0
   14.9550    8.3421   10.1869 C   0  0  0  0  0  0  0  0  0  0  0  0
   15.7951    9.4059    9.8701 C   0  0  0  0  0  0  0  0  0  0  0  0
   16.2453    9.4788    8.5603 N   0  0  0  0  0  0  0  0  0  0  0  0
  1  2  3  0
  2  3  1  0
  3  4  1  0
  4  5  1  0
  5  6  1  0
  6  7  1  0
  7  8  1  0
  8  9  2  0
  8 10  1  0
 10 11  1  0
 11 12  2  0
 12 13  1  0
 13 14  1  0
 13 15  2  0
 15 16  1  0
 15 17  1  0
 17 18  2  0
 18 19  1  0
 18 11  1  0
M  END
>  <HIPPO ID>  (438) 
115142

>  <alias>  (438) 
None

>  <ref_mols>  (438) 
c0692a,c1116a

>  <submitter_email>  (438) 
None

>  <ref_pdb>  (438) 
c0270a

>  <inchikey>  (438) 
LFPOZYOZZGLZSG-UHFFFAOYSA-N

>  <generation_date>  (438) 
None

>  <original ID>  (438) 
LFPOZYOZZGLZSG-UHFFFAOYSA-N

>  <tags>  (438) 
[]

>  <exports>  (438) 
nan

>  <method>  (438) 
None

>  <submitter_name>  (438) 
None

>  <original SMILES>  (438) 
C#CCCCOCC(=O)Nc1cc(Br)c(Cl)cc1N

>  <ref_url>  (438) 
None

$$$$
GKUPLGOMQXLSRY-UHFFFAOYSA-N
     RDKit          3D

 19 19  0  0  0  0  0  0  0  0999 V2000
   23.8362   10.0009   14.1531 C   0  0  0  0  0  0  0  0  0  0  0  0
   23.1379   10.4030   13.2618 C   0  0  0  0  0  0  0  0  0  0  0  0
   22.2295   10.7632   12.1668 C   0  0  0  0  0  0  0  0  0  0  0  0
   22.4837   12.0691   11.4733 C   0  0  0  0  0  0  0  0  0  0  0  0
   21.5694   12.1538   10.2509 C   0  0  0  0  0  0  0  0  0  0  0  0
   20.2238   11.6669   10.4551 O   0  0  0  0  0  0  0  0  0  0  0  0
   19.3989   12.5789   11.1596 C   0  0  0  0  0  0  0  0  0  0  0  0
   17.9636   12.0895   11.4268 C   0  0  0  0  0  0  0  0  0  0  0  0
   17.2861   12.6430   12.2941 O   0  0  0  0  0  0  0  0  0  0  0  0
   17.5089   11.0577   10.6264 N   0  0  0  0  0  0  0  0  0  0  0  0
   16.3766   10.2469   10.8805 C   0  0  0  0  0  0  0  0  0  0  0  0
   15.8240   10.1610   12.1459 C   0  0  0  0  0  0  0  0  0  0  0  0
   14.9313    9.1378   12.4511 C   0  0  0  0  0  0  0  0  0  0  0  0
   14.3275    9.1859   14.0499 Cl  0  0  0  0  0  0  0  0  0  0  0  0
   14.5826    8.1798   11.4958 C   0  0  0  0  0  0  0  0  0  0  0  0
   13.5433    6.6249   11.8318 Br  0  0  0  0  0  0  0  0  0  0  0  0
   15.0131    8.3576   10.1949 C   0  0  0  0  0  0  0  0  0  0  0  0
   15.8617    9.4152    9.8754 C   0  0  0  0  0  0  0  0  0  0  0  0
   16.2967    9.4752    8.5606 N   0  0  0  0  0  0  0  0  0  0  0  0
  1  2  3  0
  2  3  1  0
  3  4  1  0
  4  5  1  0
  5  6  1  0
  6  7  1  0
  7  8  1  0
  8  9  2  0
  8 10  1  0
 10 11  1  0
 11 12  2  0
 12 13  1  0
 13 14  1  0
 13 15  2  0
 15 16  1  0
 15 17  1  0
 17 18  2  0
 18 19  1  0
 18 11  1  0
M  END
>  <HIPPO ID>  (439) 
115143

>  <alias>  (439) 
None

>  <ref_mols>  (439) 
c0692a,c1116a

>  <submitter_email>  (439) 
None

>  <ref_pdb>  (439) 
c0270a

>  <inchikey>  (439) 
GKUPLGOMQXLSRY-UHFFFAOYSA-N

>  <generation_date>  (439) 
None

>  <original ID>  (439) 
GKUPLGOMQXLSRY-UHFFFAOYSA-N

>  <tags>  (439) 
[]

>  <exports>  (439) 
nan

>  <method>  (439) 
None

>  <submitter_name>  (439) 
None

>  <original SMILES>  (439) 
C#CCCCOCC(=O)Nc1cc(Cl)c(Br)cc1N

>  <ref_url>  (439) 
None

$$$$
LGJORCXJMIGXKY-UHFFFAOYSA-N
     RDKit          3D

 19 19  0  0  0  0  0  0  0  0999 V2000
   23.9723   13.9020    9.1001 C   0  0  0  0  0  0  0  0  0  0  0  0
   23.7649   13.4087   10.1747 C   0  0  0  0  0  0  0  0  0  0  0  0
   23.5461   12.7622   11.4743 C   0  0  0  0  0  0  0  0  0  0  0  0
   22.0688   12.5030   11.7340 C   0  0  0  0  0  0  0  0  0  0  0  0
   21.4487   11.5386   10.7212 C   0  0  0  0  0  0  0  0  0  0  0  0
   20.0629   11.2565   10.9430 O   0  0  0  0  0  0  0  0  0  0  0  0
   19.2644   12.4024   11.1957 C   0  0  0  0  0  0  0  0  0  0  0  0
   17.8026   12.0294   11.3896 C   0  0  0  0  0  0  0  0  0  0  0  0
   17.1067   12.6338   12.2049 O   0  0  0  0  0  0  0  0  0  0  0  0
   17.3559   11.0102   10.5773 N   0  0  0  0  0  0  0  0  0  0  0  0
   16.2524   10.1823   10.8416 C   0  0  0  0  0  0  0  0  0  0  0  0
   15.7601   10.0521   12.1250 C   0  0  0  0  0  0  0  0  0  0  0  0
   14.9113    8.9962   12.4383 C   0  0  0  0  0  0  0  0  0  0  0  0
   14.3890    8.9531   14.4259 I   0  0  0  0  0  0  0  0  0  0  0  0
   14.5127    8.0862   11.4545 C   0  0  0  0  0  0  0  0  0  0  0  0
   13.5273    6.6952   11.7377 Cl  0  0  0  0  0  0  0  0  0  0  0  0
   14.9037    8.3032   10.1433 C   0  0  0  0  0  0  0  0  0  0  0  0
   15.7419    9.3670    9.8282 C   0  0  0  0  0  0  0  0  0  0  0  0
   16.2024    9.4563    8.5233 N   0  0  0  0  0  0  0  0  0  0  0  0
  1  2  3  0
  2  3  1  0
  3  4  1  0
  4  5  1  0
  5  6  1  0
  6  7  1  0
  7  8  1  0
  8  9  2  0
  8 10  1  0
 10 11  1  0
 11 12  2  0
 12 13  1  0
 13 14  1  0
 13 15  2  0
 15 16  1  0
 15 17  1  0
 17 18  2  0
 18 19  1  0
 18 11  1  0
M  END
>  <HIPPO ID>  (440) 
115168

>  <alias>  (440) 
None

>  <ref_mols>  (440) 
c0692a,c1116a

>  <submitter_email>  (440) 
None

>  <ref_pdb>  (440) 
c0270a

>  <inchikey>  (440) 
LGJORCXJMIGXKY-UHFFFAOYSA-N

>  <generation_date>  (440) 
None

>  <original ID>  (440) 
LGJORCXJMIGXKY-UHFFFAOYSA-N

>  <tags>  (440) 
[]

>  <exports>  (440) 
nan

>  <method>  (440) 
None

>  <submitter_name>  (440) 
None

>  <original SMILES>  (440) 
C#CCCCOCC(=O)Nc1cc(I)c(Cl)cc1N

>  <ref_url>  (440) 
None

$$$$
CAKOVRNUSUJRFT-UHFFFAOYSA-N
     RDKit          3D

 19 19  0  0  0  0  0  0  0  0999 V2000
   25.1079   11.1017   13.5584 C   0  0  0  0  0  0  0  0  0  0  0  0
   24.4135   11.5623   12.6924 C   0  0  0  0  0  0  0  0  0  0  0  0
   23.5743   12.0284   11.5759 C   0  0  0  0  0  0  0  0  0  0  0  0
   22.1826   11.4095   11.6500 C   0  0  0  0  0  0  0  0  0  0  0  0
   21.3894   11.7343   10.3985 C   0  0  0  0  0  0  0  0  0  0  0  0
   20.0064   11.3981   10.5446 O   0  0  0  0  0  0  0  0  0  0  0  0
   19.2697   12.4339   11.1842 C   0  0  0  0  0  0  0  0  0  0  0  0
   17.8292   12.0160   11.4652 C   0  0  0  0  0  0  0  0  0  0  0  0
   17.1857   12.5623   12.3595 O   0  0  0  0  0  0  0  0  0  0  0  0
   17.3475   11.0292   10.6300 N   0  0  0  0  0  0  0  0  0  0  0  0
   16.2475   10.1888   10.8815 C   0  0  0  0  0  0  0  0  0  0  0  0
   15.7142   10.0606   12.1497 C   0  0  0  0  0  0  0  0  0  0  0  0
   14.8668    8.9975   12.4422 C   0  0  0  0  0  0  0  0  0  0  0  0
   14.3079    8.9853   14.0587 Cl  0  0  0  0  0  0  0  0  0  0  0  0
   14.5278    8.0586   11.4622 C   0  0  0  0  0  0  0  0  0  0  0  0
   13.4199    6.3004   11.7770 I   0  0  0  0  0  0  0  0  0  0  0  0
   14.9449    8.2807   10.1594 C   0  0  0  0  0  0  0  0  0  0  0  0
   15.7667    9.3634    9.8585 C   0  0  0  0  0  0  0  0  0  0  0  0
   16.2398    9.4543    8.5573 N   0  0  0  0  0  0  0  0  0  0  0  0
  1  2  3  0
  2  3  1  0
  3  4  1  0
  4  5  1  0
  5  6  1  0
  6  7  1  0
  7  8  1  0
  8  9  2  0
  8 10  1  0
 10 11  1  0
 11 12  2  0
 12 13  1  0
 13 14  1  0
 13 15  2  0
 15 16  1  0
 15 17  1  0
 17 18  2  0
 18 19  1  0
 18 11  1  0
M  END
>  <HIPPO ID>  (441) 
115169

>  <alias>  (441) 
None

>  <ref_mols>  (441) 
c0692a,c1116a

>  <submitter_email>  (441) 
None

>  <ref_pdb>  (441) 
c0270a

>  <inchikey>  (441) 
CAKOVRNUSUJRFT-UHFFFAOYSA-N

>  <generation_date>  (441) 
None

>  <original ID>  (441) 
CAKOVRNUSUJRFT-UHFFFAOYSA-N

>  <tags>  (441) 
[]

>  <exports>  (441) 
nan

>  <method>  (441) 
None

>  <submitter_name>  (441) 
None

>  <original SMILES>  (441) 
C#CCCCOCC(=O)Nc1cc(Cl)c(I)cc1N

>  <ref_url>  (441) 
None

$$$$
PBUGEVHUHHEGTA-UHFFFAOYSA-N
     RDKit          3D

 19 19  0  0  0  0  0  0  0  0999 V2000
   23.9101   13.7177    8.1789 C   0  0  0  0  0  0  0  0  0  0  0  0
   23.5554   12.7845    8.8410 C   0  0  0  0  0  0  0  0  0  0  0  0
   23.4166   11.5626    9.6233 C   0  0  0  0  0  0  0  0  0  0  0  0
   22.0279   11.1317   10.0345 C   0  0  0  0  0  0  0  0  0  0  0  0
   21.2344   12.1784   10.7654 C   0  0  0  0  0  0  0  0  0  0  0  0
   19.8818   11.7127   10.7851 O   0  0  0  0  0  0  0  0  0  0  0  0
   19.0436   12.6797   11.3863 C   0  0  0  0  0  0  0  0  0  0  0  0
   17.5847   12.2573   11.4002 C   0  0  0  0  0  0  0  0  0  0  0  0
   16.7340   13.0078   11.8727 O   0  0  0  0  0  0  0  0  0  0  0  0
   17.3237   11.0466   10.8015 N   0  0  0  0  0  0  0  0  0  0  0  0
   16.2061   10.2166   11.0372 C   0  0  0  0  0  0  0  0  0  0  0  0
   15.7663    9.3941    9.9717 C   0  0  0  0  0  0  0  0  0  0  0  0
   16.2497    9.5219    8.6742 N   0  0  0  0  0  0  0  0  0  0  0  0
   14.9359    8.2977   10.2065 C   0  0  0  0  0  0  0  0  0  0  0  0
   14.4437    8.0726   11.4709 C   0  0  0  0  0  0  0  0  0  0  0  0
   14.7338    8.9955   12.4662 C   0  0  0  0  0  0  0  0  0  0  0  0
   14.0995    8.8927   13.6344 F   0  0  0  0  0  0  0  0  0  0  0  0
   15.6125   10.0536   12.2891 C   0  0  0  0  0  0  0  0  0  0  0  0
   16.0028   11.0072   13.8854 Br  0  0  0  0  0  0  0  0  0  0  0  0
  1  2  3  0
  2  3  1  0
  3  4  1  0
  4  5  1  0
  5  6  1  0
  6  7  1  0
  7  8  1  0
  8  9  2  0
  8 10  1  0
 10 11  1  0
 11 12  2  0
 12 13  1  0
 12 14  1  0
 14 15  2  0
 15 16  1  0
 16 17  1  0
 16 18  2  0
 18 19  1  0
 18 11  1  0
M  END
>  <HIPPO ID>  (442) 
115172

>  <alias>  (442) 
None

>  <ref_mols>  (442) 
c0692a,c1116a

>  <submitter_email>  (442) 
None

>  <ref_pdb>  (442) 
c0270a

>  <inchikey>  (442) 
PBUGEVHUHHEGTA-UHFFFAOYSA-N

>  <generation_date>  (442) 
None

>  <original ID>  (442) 
PBUGEVHUHHEGTA-UHFFFAOYSA-N

>  <tags>  (442) 
[]

>  <exports>  (442) 
nan

>  <method>  (442) 
None

>  <submitter_name>  (442) 
None

>  <original SMILES>  (442) 
C#CCCCOCC(=O)Nc1c(N)ccc(F)c1Br

>  <ref_url>  (442) 
None

$$$$
MMDPDGNYVAZQBK-UHFFFAOYSA-N
     RDKit          3D

 19 19  0  0  0  0  0  0  0  0999 V2000
   19.8880   10.4700    9.7443 C   0  0  0  0  0  0  0  0  0  0  0  0
   21.0304   10.8241    9.7829 C   0  0  0  0  0  0  0  0  0  0  0  0
   22.3015   11.5351    9.7816 C   0  0  0  0  0  0  0  0  0  0  0  0
   22.1994   12.7331   10.7103 C   0  0  0  0  0  0  0  0  0  0  0  0
   21.0914   13.7153   10.3435 C   0  0  0  0  0  0  0  0  0  0  0  0
   19.7543   13.1997   10.4558 O   0  0  0  0  0  0  0  0  0  0  0  0
   19.2839   13.2152   11.7853 C   0  0  0  0  0  0  0  0  0  0  0  0
   17.8443   12.7545   12.0545 C   0  0  0  0  0  0  0  0  0  0  0  0
   17.2317   13.2307   13.0099 O   0  0  0  0  0  0  0  0  0  0  0  0
   17.3396   11.7662   11.2453 N   0  0  0  0  0  0  0  0  0  0  0  0
   16.3018   10.8756   11.6120 C   0  0  0  0  0  0  0  0  0  0  0  0
   15.9399   10.7091   12.9381 C   0  0  0  0  0  0  0  0  0  0  0  0
   15.1128    9.6631   13.3126 C   0  0  0  0  0  0  0  0  0  0  0  0
   14.5512    9.5918   15.0760 Br  0  0  0  0  0  0  0  0  0  0  0  0
   14.6627    8.7233   12.4180 C   0  0  0  0  0  0  0  0  0  0  0  0
   14.8682    8.9812   11.0870 C   0  0  0  0  0  0  0  0  0  0  0  0
   15.6938   10.0486   10.6648 C   0  0  0  0  0  0  0  0  0  0  0  0
   15.7823   10.3246    9.2988 N   0  0  0  0  0  0  0  0  0  0  0  0
   15.8504    9.0974    8.5717 C   0  0  0  0  0  0  0  0  0  0  0  0
  1  2  3  0
  2  3  1  0
  3  4  1  0
  4  5  1  0
  5  6  1  0
  6  7  1  0
  7  8  1  0
  8  9  2  0
  8 10  1  0
 10 11  1  0
 11 12  2  0
 12 13  1  0
 13 14  1  0
 13 15  2  0
 15 16  1  0
 16 17  2  0
 17 18  1  0
 18 19  1  0
 17 11  1  0
M  END
>  <HIPPO ID>  (443) 
115189

>  <alias>  (443) 
None

>  <ref_mols>  (443) 
c0692a,c1116a

>  <submitter_email>  (443) 
None

>  <ref_pdb>  (443) 
c0270a

>  <inchikey>  (443) 
MMDPDGNYVAZQBK-UHFFFAOYSA-N

>  <generation_date>  (443) 
None

>  <original ID>  (443) 
MMDPDGNYVAZQBK-UHFFFAOYSA-N

>  <tags>  (443) 
[]

>  <exports>  (443) 
nan

>  <method>  (443) 
None

>  <submitter_name>  (443) 
None

>  <original SMILES>  (443) 
C#CCCCOCC(=O)Nc1cc(Br)ccc1NC

>  <ref_url>  (443) 
None

$$$$
PHPCETPGLCNCPT-UHFFFAOYSA-N
     RDKit          3D

 19 19  0  0  0  0  0  0  0  0999 V2000
   24.6378   13.5335   10.1799 C   0  0  0  0  0  0  0  0  0  0  0  0
   24.0303   13.0446   11.0917 C   0  0  0  0  0  0  0  0  0  0  0  0
   23.2468   12.5109   12.2066 C   0  0  0  0  0  0  0  0  0  0  0  0
   22.1539   11.5310   11.8001 C   0  0  0  0  0  0  0  0  0  0  0  0
   21.4488   11.8567   10.4902 C   0  0  0  0  0  0  0  0  0  0  0  0
   20.0617   11.5069   10.5542 O   0  0  0  0  0  0  0  0  0  0  0  0
   19.3054   12.5342   11.1844 C   0  0  0  0  0  0  0  0  0  0  0  0
   17.8422   12.1563   11.3467 C   0  0  0  0  0  0  0  0  0  0  0  0
   17.0956   12.8376   12.0514 O   0  0  0  0  0  0  0  0  0  0  0  0
   17.4555   11.0620   10.6105 N   0  0  0  0  0  0  0  0  0  0  0  0
   16.3298   10.2437   10.8051 C   0  0  0  0  0  0  0  0  0  0  0  0
   15.9299    9.4714    9.7102 C   0  0  0  0  0  0  0  0  0  0  0  0
   15.0030    8.4479    9.8541 C   0  0  0  0  0  0  0  0  0  0  0  0
   14.5560    8.1011   11.1185 C   0  0  0  0  0  0  0  0  0  0  0  0
   13.4568    6.3079   11.2421 I   0  0  0  0  0  0  0  0  0  0  0  0
   14.8959    8.9182   12.2062 C   0  0  0  0  0  0  0  0  0  0  0  0
   14.3408    8.6221   13.8118 Cl  0  0  0  0  0  0  0  0  0  0  0  0
   15.7106   10.0583   12.0498 C   0  0  0  0  0  0  0  0  0  0  0  0
   16.1069   10.7824   13.2074 N   0  0  0  0  0  0  0  0  0  0  0  0
  1  2  3  0
  2  3  1  0
  3  4  1  0
  4  5  1  0
  5  6  1  0
  6  7  1  0
  7  8  1  0
  8  9  2  0
  8 10  1  0
 10 11  1  0
 11 12  2  0
 12 13  1  0
 13 14  2  0
 14 15  1  0
 14 16  1  0
 16 17  1  0
 16 18  2  0
 18 19  1  0
 18 11  1  0
M  END
>  <HIPPO ID>  (444) 
115191

>  <alias>  (444) 
None

>  <ref_mols>  (444) 
c0692a,c1116a

>  <submitter_email>  (444) 
None

>  <ref_pdb>  (444) 
c0270a

>  <inchikey>  (444) 
PHPCETPGLCNCPT-UHFFFAOYSA-N

>  <generation_date>  (444) 
None

>  <original ID>  (444) 
PHPCETPGLCNCPT-UHFFFAOYSA-N

>  <tags>  (444) 
[]

>  <exports>  (444) 
nan

>  <method>  (444) 
None

>  <submitter_name>  (444) 
None

>  <original SMILES>  (444) 
C#CCCCOCC(=O)Nc1ccc(I)c(Cl)c1N

>  <ref_url>  (444) 
None

$$$$
FXISXLAWILLFTN-UHFFFAOYSA-N
     RDKit          3D

 19 19  0  0  0  0  0  0  0  0999 V2000
   24.7103   13.9193   11.2951 C   0  0  0  0  0  0  0  0  0  0  0  0
   24.1744   13.2178   10.4846 C   0  0  0  0  0  0  0  0  0  0  0  0
   23.5746   12.3323    9.4971 C   0  0  0  0  0  0  0  0  0  0  0  0
   22.1016   12.1240    9.7444 C   0  0  0  0  0  0  0  0  0  0  0  0
   21.6309   11.5332   11.0568 C   0  0  0  0  0  0  0  0  0  0  0  0
   20.2144   11.2687   10.9594 O   0  0  0  0  0  0  0  0  0  0  0  0
   19.4230   12.4172   11.2407 C   0  0  0  0  0  0  0  0  0  0  0  0
   17.9305   12.0984   11.3458 C   0  0  0  0  0  0  0  0  0  0  0  0
   17.1752   12.8454   11.9658 O   0  0  0  0  0  0  0  0  0  0  0  0
   17.5214   10.9878   10.6377 N   0  0  0  0  0  0  0  0  0  0  0  0
   16.3631   10.2288   10.9088 C   0  0  0  0  0  0  0  0  0  0  0  0
   15.8434    9.3861    9.9097 C   0  0  0  0  0  0  0  0  0  0  0  0
   16.2888    9.4370    8.5950 N   0  0  0  0  0  0  0  0  0  0  0  0
   14.9657    8.3527   10.2392 C   0  0  0  0  0  0  0  0  0  0  0  0
   14.4860    8.2491   11.5296 C   0  0  0  0  0  0  0  0  0  0  0  0
   14.8339    9.2310   12.4478 C   0  0  0  0  0  0  0  0  0  0  0  0
   14.2173    9.3014   13.6262 F   0  0  0  0  0  0  0  0  0  0  0  0
   15.7908   10.1806   12.1702 C   0  0  0  0  0  0  0  0  0  0  0  0
   16.2284   10.9241   13.1928 F   0  0  0  0  0  0  0  0  0  0  0  0
  1  2  3  0
  2  3  1  0
  3  4  1  0
  4  5  1  0
  5  6  1  0
  6  7  1  0
  7  8  1  0
  8  9  2  0
  8 10  1  0
 10 11  1  0
 11 12  2  0
 12 13  1  0
 12 14  1  0
 14 15  2  0
 15 16  1  0
 16 17  1  0
 16 18  2  0
 18 19  1  0
 18 11  1  0
M  END
>  <HIPPO ID>  (445) 
115196

>  <alias>  (445) 
None

>  <ref_mols>  (445) 
c0692a,c1116a

>  <submitter_email>  (445) 
None

>  <ref_pdb>  (445) 
c0270a

>  <inchikey>  (445) 
FXISXLAWILLFTN-UHFFFAOYSA-N

>  <generation_date>  (445) 
None

>  <original ID>  (445) 
FXISXLAWILLFTN-UHFFFAOYSA-N

>  <tags>  (445) 
[]

>  <exports>  (445) 
nan

>  <method>  (445) 
None

>  <submitter_name>  (445) 
None

>  <original SMILES>  (445) 
C#CCCCOCC(=O)Nc1c(N)ccc(F)c1F

>  <ref_url>  (445) 
None

$$$$
JEJZCXXFXSHXLL-GFCCVEGCSA-N
     RDKit          3D

 19 19  0  0  0  0  0  0  0  0999 V2000
   21.6380   11.5040   10.2720 C   0  0  0  0  0  0  0  0  0  0  0  0
   20.2139   11.5342   10.3739 O   0  0  0  0  0  0  0  0  0  0  0  0
   19.6776   12.6139   11.1476 C   0  0  1  0  0  0  0  0  0  0  0  0
   20.4191   12.7505   12.4850 C   0  0  0  0  0  0  0  0  0  0  0  0
   19.8452   14.0221   10.5370 C   0  0  0  0  0  0  0  0  0  0  0  0
   20.2087   14.3030    9.4038 O   0  0  0  0  0  0  0  0  0  0  0  0
   19.5658   15.0355   11.3870 O   0  0  0  0  0  0  0  0  0  0  0  0
   18.1434   12.3030   11.3418 C   0  0  0  0  0  0  0  0  0  0  0  0
   17.4093   13.0890   11.9402 O   0  0  0  0  0  0  0  0  0  0  0  0
   17.6714   11.1299   10.7524 N   0  0  0  0  0  0  0  0  0  0  0  0
   16.4773   10.3910   11.0240 C   0  0  0  0  0  0  0  0  0  0  0  0
   16.0166    9.4803   10.0322 C   0  0  0  0  0  0  0  0  0  0  0  0
   16.4724    9.4790    8.7173 N   0  0  0  0  0  0  0  0  0  0  0  0
   15.1187    8.4530   10.3280 C   0  0  0  0  0  0  0  0  0  0  0  0
   14.5658    8.3836   11.5788 C   0  0  0  0  0  0  0  0  0  0  0  0
   14.8367    9.4116   12.4680 C   0  0  0  0  0  0  0  0  0  0  0  0
   14.1065    9.5003   13.5815 F   0  0  0  0  0  0  0  0  0  0  0  0
   15.8034   10.3950   12.2491 C   0  0  0  0  0  0  0  0  0  0  0  0
   16.0135   11.3335   13.3915 C   0  0  0  0  0  0  0  0  0  0  0  0
  1  2  1  0
  3  2  1  0
  3  4  1  1
  3  5  1  0
  5  6  2  0
  5  7  1  0
  3  8  1  0
  8  9  2  0
  8 10  1  0
 10 11  1  0
 11 12  2  0
 12 13  1  0
 12 14  1  0
 14 15  2  0
 15 16  1  0
 16 17  1  0
 16 18  2  0
 18 19  1  0
 18 11  1  0
M  END
>  <HIPPO ID>  (446) 
115201

>  <alias>  (446) 
None

>  <ref_mols>  (446) 
c0692a,c1116a

>  <submitter_email>  (446) 
None

>  <ref_pdb>  (446) 
c0270a

>  <inchikey>  (446) 
JEJZCXXFXSHXLL-GFCCVEGCSA-N

>  <generation_date>  (446) 
None

>  <original ID>  (446) 
JEJZCXXFXSHXLL-GFCCVEGCSA-N

>  <tags>  (446) 
[]

>  <exports>  (446) 
nan

>  <method>  (446) 
None

>  <submitter_name>  (446) 
None

>  <original SMILES>  (446) 
CO[C@@](C)(C(=O)O)C(=O)Nc1c(N)ccc(F)c1C

>  <ref_url>  (446) 
None

$$$$
KIYPTVLCTHIKLG-NSHDSACASA-N
     RDKit          3D

 19 19  0  0  0  0  0  0  0  0999 V2000
   21.6001   11.2959   10.4662 C   0  0  0  0  0  0  0  0  0  0  0  0
   20.1842   11.4098   10.5056 O   0  0  0  0  0  0  0  0  0  0  0  0
   19.6428   12.5244   11.2113 C   0  0  2  0  0  0  0  0  0  0  0  0
   20.0545   13.8423   10.5339 C   0  0  0  0  0  0  0  0  0  0  0  0
   20.1051   12.8895   12.6253 C   0  0  0  0  0  0  0  0  0  0  0  0
   19.4979   13.6342   13.3773 O   0  0  0  0  0  0  0  0  0  0  0  0
   21.3383   12.4544   12.9449 O   0  0  0  0  0  0  0  0  0  0  0  0
   18.0783   12.2455   11.2721 C   0  0  0  0  0  0  0  0  0  0  0  0
   17.2887   12.9666   11.8825 O   0  0  0  0  0  0  0  0  0  0  0  0
   17.6352   11.1128   10.5867 N   0  0  0  0  0  0  0  0  0  0  0  0
   16.4500   10.3710   10.8335 C   0  0  0  0  0  0  0  0  0  0  0  0
   15.8086   10.4070   12.0582 C   0  0  0  0  0  0  0  0  0  0  0  0
   14.8975    9.4032   12.3729 C   0  0  0  0  0  0  0  0  0  0  0  0
   14.2652    9.5236   13.5400 F   0  0  0  0  0  0  0  0  0  0  0  0
   14.6352    8.3425   11.5045 C   0  0  0  0  0  0  0  0  0  0  0  0
   13.6536    6.7878   11.9658 Br  0  0  0  0  0  0  0  0  0  0  0  0
   15.1204    8.4173   10.2220 C   0  0  0  0  0  0  0  0  0  0  0  0
   15.9729    9.4595    9.8719 C   0  0  0  0  0  0  0  0  0  0  0  0
   16.4148    9.4491    8.5578 N   0  0  0  0  0  0  0  0  0  0  0  0
  1  2  1  0
  3  2  1  0
  3  4  1  6
  3  5  1  0
  5  6  2  0
  5  7  1  0
  3  8  1  0
  8  9  2  0
  8 10  1  0
 10 11  1  0
 11 12  2  0
 12 13  1  0
 13 14  1  0
 13 15  2  0
 15 16  1  0
 15 17  1  0
 17 18  2  0
 18 19  1  0
 18 11  1  0
M  END
>  <HIPPO ID>  (447) 
115204

>  <alias>  (447) 
None

>  <ref_mols>  (447) 
c0692a,c1116a

>  <submitter_email>  (447) 
None

>  <ref_pdb>  (447) 
c0270a

>  <inchikey>  (447) 
KIYPTVLCTHIKLG-NSHDSACASA-N

>  <generation_date>  (447) 
None

>  <original ID>  (447) 
KIYPTVLCTHIKLG-NSHDSACASA-N

>  <tags>  (447) 
[]

>  <exports>  (447) 
nan

>  <method>  (447) 
None

>  <submitter_name>  (447) 
None

>  <original SMILES>  (447) 
CO[C@](C)(C(=O)O)C(=O)Nc1cc(F)c(Br)cc1N

>  <ref_url>  (447) 
None

$$$$
KIYPTVLCTHIKLG-LLVKDONJSA-N
     RDKit          3D

 19 19  0  0  0  0  0  0  0  0999 V2000
   21.6016   11.4626   10.2306 C   0  0  0  0  0  0  0  0  0  0  0  0
   20.1810   11.5024   10.3648 O   0  0  0  0  0  0  0  0  0  0  0  0
   19.6683   12.5295   11.2238 C   0  0  1  0  0  0  0  0  0  0  0  0
   20.5309   12.6605   12.4919 C   0  0  0  0  0  0  0  0  0  0  0  0
   19.7436   13.9622   10.6676 C   0  0  0  0  0  0  0  0  0  0  0  0
   20.1092   14.3028    9.5509 O   0  0  0  0  0  0  0  0  0  0  0  0
   19.4210   14.9198   11.5663 O   0  0  0  0  0  0  0  0  0  0  0  0
   18.1700   12.1265   11.5299 C   0  0  0  0  0  0  0  0  0  0  0  0
   17.5430   12.6307   12.4625 O   0  0  0  0  0  0  0  0  0  0  0  0
   17.6100   11.1605   10.6815 N   0  0  0  0  0  0  0  0  0  0  0  0
   16.4482   10.3665   10.9142 C   0  0  0  0  0  0  0  0  0  0  0  0
   15.8002   10.3413   12.1367 C   0  0  0  0  0  0  0  0  0  0  0  0
   14.8869    9.3274   12.4103 C   0  0  0  0  0  0  0  0  0  0  0  0
   14.2443    9.4122   13.5746 F   0  0  0  0  0  0  0  0  0  0  0  0
   14.6250    8.3021   11.5044 C   0  0  0  0  0  0  0  0  0  0  0  0
   13.6220    6.7447   11.9031 Br  0  0  0  0  0  0  0  0  0  0  0  0
   15.1218    8.4244   10.2311 C   0  0  0  0  0  0  0  0  0  0  0  0
   15.9777    9.4808    9.9203 C   0  0  0  0  0  0  0  0  0  0  0  0
   16.4257    9.4882    8.6079 N   0  0  0  0  0  0  0  0  0  0  0  0
  1  2  1  0
  3  2  1  0
  3  4  1  1
  3  5  1  0
  5  6  2  0
  5  7  1  0
  3  8  1  0
  8  9  2  0
  8 10  1  0
 10 11  1  0
 11 12  2  0
 12 13  1  0
 13 14  1  0
 13 15  2  0
 15 16  1  0
 15 17  1  0
 17 18  2  0
 18 19  1  0
 18 11  1  0
M  END
>  <HIPPO ID>  (448) 
115205

>  <alias>  (448) 
None

>  <ref_mols>  (448) 
c0692a,c1116a

>  <submitter_email>  (448) 
None

>  <ref_pdb>  (448) 
c0270a

>  <inchikey>  (448) 
KIYPTVLCTHIKLG-LLVKDONJSA-N

>  <generation_date>  (448) 
None

>  <original ID>  (448) 
KIYPTVLCTHIKLG-LLVKDONJSA-N

>  <tags>  (448) 
[]

>  <exports>  (448) 
nan

>  <method>  (448) 
None

>  <submitter_name>  (448) 
None

>  <original SMILES>  (448) 
CO[C@@](C)(C(=O)O)C(=O)Nc1cc(F)c(Br)cc1N

>  <ref_url>  (448) 
None

$$$$
AMQMBXPWVNBPLK-NSHDSACASA-N
     RDKit          3D

 19 19  0  0  0  0  0  0  0  0999 V2000
   21.6688   11.3284   10.4692 C   0  0  0  0  0  0  0  0  0  0  0  0
   20.2545   11.4524   10.5134 O   0  0  0  0  0  0  0  0  0  0  0  0
   19.7236   12.5793   11.2072 C   0  0  2  0  0  0  0  0  0  0  0  0
   20.1277   13.8810   10.4945 C   0  0  0  0  0  0  0  0  0  0  0  0
   20.1891   12.9619   12.6232 C   0  0  0  0  0  0  0  0  0  0  0  0
   19.6627   13.8077   13.3316 O   0  0  0  0  0  0  0  0  0  0  0  0
   21.3514   12.3894   12.9903 O   0  0  0  0  0  0  0  0  0  0  0  0
   18.1692   12.3171   11.2650 C   0  0  0  0  0  0  0  0  0  0  0  0
   17.3881   13.0798   11.8371 O   0  0  0  0  0  0  0  0  0  0  0  0
   17.7154   11.1563   10.6344 N   0  0  0  0  0  0  0  0  0  0  0  0
   16.5200   10.4567   10.9355 C   0  0  0  0  0  0  0  0  0  0  0  0
   15.9382   10.5752   12.1826 C   0  0  0  0  0  0  0  0  0  0  0  0
   14.9966    9.6379   12.5833 C   0  0  0  0  0  0  0  0  0  0  0  0
   14.3141    9.8667   14.3026 Br  0  0  0  0  0  0  0  0  0  0  0  0
   14.6183    8.5902   11.7496 C   0  0  0  0  0  0  0  0  0  0  0  0
   13.7595    7.6313   12.1258 F   0  0  0  0  0  0  0  0  0  0  0  0
   15.0785    8.5500   10.4611 C   0  0  0  0  0  0  0  0  0  0  0  0
   15.9920    9.5099   10.0377 C   0  0  0  0  0  0  0  0  0  0  0  0
   16.4825    9.3538    8.7650 N   0  0  0  0  0  0  0  0  0  0  0  0
  1  2  1  0
  3  2  1  0
  3  4  1  6
  3  5  1  0
  5  6  2  0
  5  7  1  0
  3  8  1  0
  8  9  2  0
  8 10  1  0
 10 11  1  0
 11 12  2  0
 12 13  1  0
 13 14  1  0
 13 15  2  0
 15 16  1  0
 15 17  1  0
 17 18  2  0
 18 19  1  0
 18 11  1  0
M  END
>  <HIPPO ID>  (449) 
115206

>  <alias>  (449) 
None

>  <ref_mols>  (449) 
c0692a,c1116a

>  <submitter_email>  (449) 
None

>  <ref_pdb>  (449) 
c0270a

>  <inchikey>  (449) 
AMQMBXPWVNBPLK-NSHDSACASA-N

>  <generation_date>  (449) 
None

>  <original ID>  (449) 
AMQMBXPWVNBPLK-NSHDSACASA-N

>  <tags>  (449) 
[]

>  <exports>  (449) 
nan

>  <method>  (449) 
None

>  <submitter_name>  (449) 
None

>  <original SMILES>  (449) 
CO[C@](C)(C(=O)O)C(=O)Nc1cc(Br)c(F)cc1N

>  <ref_url>  (449) 
None

$$$$
AMQMBXPWVNBPLK-LLVKDONJSA-N
     RDKit          3D

 19 19  0  0  0  0  0  0  0  0999 V2000
   21.6755   11.5121   10.2362 C   0  0  0  0  0  0  0  0  0  0  0  0
   20.2538   11.5218   10.3688 O   0  0  0  0  0  0  0  0  0  0  0  0
   19.7213   12.5725   11.1843 C   0  0  1  0  0  0  0  0  0  0  0  0
   20.5302   12.7164   12.4844 C   0  0  0  0  0  0  0  0  0  0  0  0
   19.8093   13.9896   10.5889 C   0  0  0  0  0  0  0  0  0  0  0  0
   20.1445   14.2989    9.4541 O   0  0  0  0  0  0  0  0  0  0  0  0
   19.5066   14.9778   11.4601 O   0  0  0  0  0  0  0  0  0  0  0  0
   18.2185   12.1942   11.4546 C   0  0  0  0  0  0  0  0  0  0  0  0
   17.5485   12.7933   12.2978 O   0  0  0  0  0  0  0  0  0  0  0  0
   17.6985   11.1490   10.6799 N   0  0  0  0  0  0  0  0  0  0  0  0
   16.5354   10.3757   10.9594 C   0  0  0  0  0  0  0  0  0  0  0  0
   15.9520   10.4114   12.2132 C   0  0  0  0  0  0  0  0  0  0  0  0
   15.0010    9.4628   12.5650 C   0  0  0  0  0  0  0  0  0  0  0  0
   14.2960    9.6383   14.2859 Br  0  0  0  0  0  0  0  0  0  0  0  0
   14.6092    8.4679   11.6762 C   0  0  0  0  0  0  0  0  0  0  0  0
   13.7020    7.5311   11.9900 F   0  0  0  0  0  0  0  0  0  0  0  0
   15.0885    8.4826   10.3920 C   0  0  0  0  0  0  0  0  0  0  0  0
   16.0448    9.4307   10.0297 C   0  0  0  0  0  0  0  0  0  0  0  0
   16.3298    9.4879    8.6830 N   0  0  0  0  0  0  0  0  0  0  0  0
  1  2  1  0
  3  2  1  0
  3  4  1  1
  3  5  1  0
  5  6  2  0
  5  7  1  0
  3  8  1  0
  8  9  2  0
  8 10  1  0
 10 11  1  0
 11 12  2  0
 12 13  1  0
 13 14  1  0
 13 15  2  0
 15 16  1  0
 15 17  1  0
 17 18  2  0
 18 19  1  0
 18 11  1  0
M  END
>  <HIPPO ID>  (450) 
115207

>  <alias>  (450) 
None

>  <ref_mols>  (450) 
c0692a,c1116a

>  <submitter_email>  (450) 
None

>  <ref_pdb>  (450) 
c0270a

>  <inchikey>  (450) 
AMQMBXPWVNBPLK-LLVKDONJSA-N

>  <generation_date>  (450) 
None

>  <original ID>  (450) 
AMQMBXPWVNBPLK-LLVKDONJSA-N

>  <tags>  (450) 
[]

>  <exports>  (450) 
nan

>  <method>  (450) 
None

>  <submitter_name>  (450) 
None

>  <original SMILES>  (450) 
CO[C@@](C)(C(=O)O)C(=O)Nc1cc(Br)c(F)cc1N

>  <ref_url>  (450) 
None

$$$$
RXTQTMOSDKLJNJ-NSHDSACASA-N
     RDKit          3D

 19 19  0  0  0  0  0  0  0  0999 V2000
   21.7760   11.3811   10.3321 C   0  0  0  0  0  0  0  0  0  0  0  0
   20.3631   11.5545   10.3135 O   0  0  0  0  0  0  0  0  0  0  0  0
   19.8466   12.6142   11.1307 C   0  0  2  0  0  0  0  0  0  0  0  0
   20.2055   13.9721   10.5074 C   0  0  0  0  0  0  0  0  0  0  0  0
   20.4380   12.7540   12.5299 C   0  0  0  0  0  0  0  0  0  0  0  0
   21.3980   12.1348   12.9570 O   0  0  0  0  0  0  0  0  0  0  0  0
   19.8793   13.7278   13.2743 O   0  0  0  0  0  0  0  0  0  0  0  0
   18.3116   12.3524   11.2226 C   0  0  0  0  0  0  0  0  0  0  0  0
   17.5291   13.1346   11.7675 O   0  0  0  0  0  0  0  0  0  0  0  0
   17.8903   11.1679   10.6294 N   0  0  0  0  0  0  0  0  0  0  0  0
   16.6789   10.4705   10.8342 C   0  0  0  0  0  0  0  0  0  0  0  0
   16.2641    9.5944    9.8154 C   0  0  0  0  0  0  0  0  0  0  0  0
   15.2249    8.6918   10.0046 C   0  0  0  0  0  0  0  0  0  0  0  0
   14.6579    8.5948   11.2555 C   0  0  0  0  0  0  0  0  0  0  0  0
   13.7363    7.6389   11.4523 F   0  0  0  0  0  0  0  0  0  0  0  0
   15.0322    9.4825   12.2690 C   0  0  0  0  0  0  0  0  0  0  0  0
   14.3150    9.3570   14.0124 Br  0  0  0  0  0  0  0  0  0  0  0  0
   15.9793   10.4947   12.0505 C   0  0  0  0  0  0  0  0  0  0  0  0
   16.3975   11.2930   13.1496 N   0  0  0  0  0  0  0  0  0  0  0  0
  1  2  1  0
  3  2  1  0
  3  4  1  6
  3  5  1  0
  5  6  2  0
  5  7  1  0
  3  8  1  0
  8  9  2  0
  8 10  1  0
 10 11  1  0
 11 12  2  0
 12 13  1  0
 13 14  2  0
 14 15  1  0
 14 16  1  0
 16 17  1  0
 16 18  2  0
 18 19  1  0
 18 11  1  0
M  END
>  <HIPPO ID>  (451) 
115221

>  <alias>  (451) 
None

>  <ref_mols>  (451) 
c0692a,c1116a

>  <submitter_email>  (451) 
None

>  <ref_pdb>  (451) 
c0270a

>  <inchikey>  (451) 
RXTQTMOSDKLJNJ-NSHDSACASA-N

>  <generation_date>  (451) 
None

>  <original ID>  (451) 
RXTQTMOSDKLJNJ-NSHDSACASA-N

>  <tags>  (451) 
[]

>  <exports>  (451) 
nan

>  <method>  (451) 
None

>  <submitter_name>  (451) 
None

>  <original SMILES>  (451) 
CO[C@](C)(C(=O)O)C(=O)Nc1ccc(F)c(Br)c1N

>  <ref_url>  (451) 
None

$$$$
RXTQTMOSDKLJNJ-LLVKDONJSA-N
     RDKit          3D

 19 19  0  0  0  0  0  0  0  0999 V2000
   21.7893   11.6141   10.2584 C   0  0  0  0  0  0  0  0  0  0  0  0
   20.3684   11.6124   10.3712 O   0  0  0  0  0  0  0  0  0  0  0  0
   19.8123   12.6738   11.1612 C   0  0  1  0  0  0  0  0  0  0  0  0
   20.5366   12.7882   12.5054 C   0  0  0  0  0  0  0  0  0  0  0  0
   19.9247   14.0796   10.5409 C   0  0  0  0  0  0  0  0  0  0  0  0
   20.1906   14.3533    9.3786 O   0  0  0  0  0  0  0  0  0  0  0  0
   19.6993   15.0917   11.4062 O   0  0  0  0  0  0  0  0  0  0  0  0
   18.3029   12.3214   11.3465 C   0  0  0  0  0  0  0  0  0  0  0  0
   17.5405   13.0386   11.9998 O   0  0  0  0  0  0  0  0  0  0  0  0
   17.8776   11.1733   10.6882 N   0  0  0  0  0  0  0  0  0  0  0  0
   16.6801   10.4433   10.8830 C   0  0  0  0  0  0  0  0  0  0  0  0
   16.2602    9.6087    9.8312 C   0  0  0  0  0  0  0  0  0  0  0  0
   15.2180    8.7006    9.9843 C   0  0  0  0  0  0  0  0  0  0  0  0
   14.6484    8.5531   11.2290 C   0  0  0  0  0  0  0  0  0  0  0  0
   13.7154    7.6008   11.3856 F   0  0  0  0  0  0  0  0  0  0  0  0
   15.0335    9.3890   12.2799 C   0  0  0  0  0  0  0  0  0  0  0  0
   14.3125    9.1933   14.0159 Br  0  0  0  0  0  0  0  0  0  0  0  0
   15.9907   10.4015   12.1060 C   0  0  0  0  0  0  0  0  0  0  0  0
   16.4267   11.1268   13.2476 N   0  0  0  0  0  0  0  0  0  0  0  0
  1  2  1  0
  3  2  1  0
  3  4  1  1
  3  5  1  0
  5  6  2  0
  5  7  1  0
  3  8  1  0
  8  9  2  0
  8 10  1  0
 10 11  1  0
 11 12  2  0
 12 13  1  0
 13 14  2  0
 14 15  1  0
 14 16  1  0
 16 17  1  0
 16 18  2  0
 18 19  1  0
 18 11  1  0
M  END
>  <HIPPO ID>  (452) 
115222

>  <alias>  (452) 
None

>  <ref_mols>  (452) 
c0692a,c1116a

>  <submitter_email>  (452) 
None

>  <ref_pdb>  (452) 
c0270a

>  <inchikey>  (452) 
RXTQTMOSDKLJNJ-LLVKDONJSA-N

>  <generation_date>  (452) 
None

>  <original ID>  (452) 
RXTQTMOSDKLJNJ-LLVKDONJSA-N

>  <tags>  (452) 
[]

>  <exports>  (452) 
nan

>  <method>  (452) 
None

>  <submitter_name>  (452) 
None

>  <original SMILES>  (452) 
CO[C@@](C)(C(=O)O)C(=O)Nc1ccc(F)c(Br)c1N

>  <ref_url>  (452) 
None

$$$$
QGXXLBUVNSDIHW-NSHDSACASA-N
     RDKit          3D

 19 19  0  0  0  0  0  0  0  0999 V2000
   21.6142   11.3107   10.5171 C   0  0  0  0  0  0  0  0  0  0  0  0
   20.2014   11.4515   10.5441 O   0  0  0  0  0  0  0  0  0  0  0  0
   19.6750   12.5938   11.2159 C   0  0  2  0  0  0  0  0  0  0  0  0
   20.1187   13.8840   10.5013 C   0  0  0  0  0  0  0  0  0  0  0  0
   20.1076   12.9917   12.6354 C   0  0  0  0  0  0  0  0  0  0  0  0
   19.5233   13.7930   13.3490 O   0  0  0  0  0  0  0  0  0  0  0  0
   21.3102   12.5020   12.9965 O   0  0  0  0  0  0  0  0  0  0  0  0
   18.1142   12.3609   11.2431 C   0  0  0  0  0  0  0  0  0  0  0  0
   17.3237   13.2315   11.6028 O   0  0  0  0  0  0  0  0  0  0  0  0
   17.6828   11.1098   10.8107 N   0  0  0  0  0  0  0  0  0  0  0  0
   16.4589   10.4399   11.1099 C   0  0  0  0  0  0  0  0  0  0  0  0
   15.9920    9.4898   10.1635 C   0  0  0  0  0  0  0  0  0  0  0  0
   16.5420    9.3806    8.9030 N   0  0  0  0  0  0  0  0  0  0  0  0
   15.1017    8.4755   10.5209 C   0  0  0  0  0  0  0  0  0  0  0  0
   14.5530    8.4766   11.7752 C   0  0  0  0  0  0  0  0  0  0  0  0
   14.8093    9.5578   12.6051 C   0  0  0  0  0  0  0  0  0  0  0  0
   14.0750    9.6911   13.7114 F   0  0  0  0  0  0  0  0  0  0  0  0
   15.7813   10.5141   12.3258 C   0  0  0  0  0  0  0  0  0  0  0  0
   16.1771   11.6421   13.7925 Br  0  0  0  0  0  0  0  0  0  0  0  0
  1  2  1  0
  3  2  1  0
  3  4  1  6
  3  5  1  0
  5  6  2  0
  5  7  1  0
  3  8  1  0
  8  9  2  0
  8 10  1  0
 10 11  1  0
 11 12  2  0
 12 13  1  0
 12 14  1  0
 14 15  2  0
 15 16  1  0
 16 17  1  0
 16 18  2  0
 18 19  1  0
 18 11  1  0
M  END
>  <HIPPO ID>  (453) 
115223

>  <alias>  (453) 
None

>  <ref_mols>  (453) 
c0692a,c1116a

>  <submitter_email>  (453) 
None

>  <ref_pdb>  (453) 
c0270a

>  <inchikey>  (453) 
QGXXLBUVNSDIHW-NSHDSACASA-N

>  <generation_date>  (453) 
None

>  <original ID>  (453) 
QGXXLBUVNSDIHW-NSHDSACASA-N

>  <tags>  (453) 
[]

>  <exports>  (453) 
nan

>  <method>  (453) 
None

>  <submitter_name>  (453) 
None

>  <original SMILES>  (453) 
CO[C@](C)(C(=O)O)C(=O)Nc1c(N)ccc(F)c1Br

>  <ref_url>  (453) 
None

$$$$
QGXXLBUVNSDIHW-LLVKDONJSA-N
     RDKit          3D

 19 19  0  0  0  0  0  0  0  0999 V2000
   21.6272   11.0888   10.6205 C   0  0  0  0  0  0  0  0  0  0  0  0
   20.2250   11.2315   10.8042 O   0  0  0  0  0  0  0  0  0  0  0  0
   19.7384   12.5379   11.1465 C   0  0  1  0  0  0  0  0  0  0  0  0
   20.1608   12.9597   12.5671 C   0  0  0  0  0  0  0  0  0  0  0  0
   20.2686   13.7200   10.3036 C   0  0  0  0  0  0  0  0  0  0  0  0
   19.6712   14.6064    9.7250 O   0  0  0  0  0  0  0  0  0  0  0  0
   21.6177   13.7735   10.2461 O   0  0  0  0  0  0  0  0  0  0  0  0
   18.1707   12.3651   11.1800 C   0  0  0  0  0  0  0  0  0  0  0  0
   17.4352   13.2465   11.6230 O   0  0  0  0  0  0  0  0  0  0  0  0
   17.6798   11.1508   10.6995 N   0  0  0  0  0  0  0  0  0  0  0  0
   16.4773   10.4479   11.0336 C   0  0  0  0  0  0  0  0  0  0  0  0
   16.0443    9.4463   10.1159 C   0  0  0  0  0  0  0  0  0  0  0  0
   16.3236    9.5157    8.7633 N   0  0  0  0  0  0  0  0  0  0  0  0
   15.1344    8.4478   10.4727 C   0  0  0  0  0  0  0  0  0  0  0  0
   14.5926    8.4533   11.7301 C   0  0  0  0  0  0  0  0  0  0  0  0
   14.8527    9.5409   12.5514 C   0  0  0  0  0  0  0  0  0  0  0  0
   14.1206    9.6779   13.6596 F   0  0  0  0  0  0  0  0  0  0  0  0
   15.8088   10.5133   12.2565 C   0  0  0  0  0  0  0  0  0  0  0  0
   16.1591   11.6790   13.7063 Br  0  0  0  0  0  0  0  0  0  0  0  0
  1  2  1  0
  3  2  1  0
  3  4  1  1
  3  5  1  0
  5  6  2  0
  5  7  1  0
  3  8  1  0
  8  9  2  0
  8 10  1  0
 10 11  1  0
 11 12  2  0
 12 13  1  0
 12 14  1  0
 14 15  2  0
 15 16  1  0
 16 17  1  0
 16 18  2  0
 18 19  1  0
 18 11  1  0
M  END
>  <HIPPO ID>  (454) 
115224

>  <alias>  (454) 
None

>  <ref_mols>  (454) 
c0692a,c1116a

>  <submitter_email>  (454) 
None

>  <ref_pdb>  (454) 
c0270a

>  <inchikey>  (454) 
QGXXLBUVNSDIHW-LLVKDONJSA-N

>  <generation_date>  (454) 
None

>  <original ID>  (454) 
QGXXLBUVNSDIHW-LLVKDONJSA-N

>  <tags>  (454) 
[]

>  <exports>  (454) 
nan

>  <method>  (454) 
None

>  <submitter_name>  (454) 
None

>  <original SMILES>  (454) 
CO[C@@](C)(C(=O)O)C(=O)Nc1c(N)ccc(F)c1Br

>  <ref_url>  (454) 
None

$$$$
JMRLTBDXIXMSSS-NSHDSACASA-N
     RDKit          3D

 19 19  0  0  0  0  0  0  0  0999 V2000
   21.6818   11.3355   10.4689 C   0  0  0  0  0  0  0  0  0  0  0  0
   20.2661   11.4521   10.5070 O   0  0  0  0  0  0  0  0  0  0  0  0
   19.7286   12.5767   11.2028 C   0  0  2  0  0  0  0  0  0  0  0  0
   20.1274   13.8802   10.4913 C   0  0  0  0  0  0  0  0  0  0  0  0
   20.1889   12.9603   12.6203 C   0  0  0  0  0  0  0  0  0  0  0  0
   19.6586   13.8056   13.3262 O   0  0  0  0  0  0  0  0  0  0  0  0
   21.3503   12.3887   12.9907 O   0  0  0  0  0  0  0  0  0  0  0  0
   18.1759   12.3000   11.2544 C   0  0  0  0  0  0  0  0  0  0  0  0
   17.3873   13.0363   11.8487 O   0  0  0  0  0  0  0  0  0  0  0  0
   17.7349   11.1544   10.5838 N   0  0  0  0  0  0  0  0  0  0  0  0
   16.5452   10.4342   10.8537 C   0  0  0  0  0  0  0  0  0  0  0  0
   15.9494   10.5192   12.0993 C   0  0  0  0  0  0  0  0  0  0  0  0
   14.9819    9.5924   12.4596 C   0  0  0  0  0  0  0  0  0  0  0  0
   14.2907    9.8059   14.0031 Cl  0  0  0  0  0  0  0  0  0  0  0  0
   14.6123    8.5649   11.5918 C   0  0  0  0  0  0  0  0  0  0  0  0
   13.7300    7.6135   11.9320 F   0  0  0  0  0  0  0  0  0  0  0  0
   15.0953    8.5499   10.3075 C   0  0  0  0  0  0  0  0  0  0  0  0
   16.0179    9.5156    9.9232 C   0  0  0  0  0  0  0  0  0  0  0  0
   16.4300    9.4528    8.5998 N   0  0  0  0  0  0  0  0  0  0  0  0
  1  2  1  0
  3  2  1  0
  3  4  1  6
  3  5  1  0
  5  6  2  0
  5  7  1  0
  3  8  1  0
  8  9  2  0
  8 10  1  0
 10 11  1  0
 11 12  2  0
 12 13  1  0
 13 14  1  0
 13 15  2  0
 15 16  1  0
 15 17  1  0
 17 18  2  0
 18 19  1  0
 18 11  1  0
M  END
>  <HIPPO ID>  (455) 
115229

>  <alias>  (455) 
None

>  <ref_mols>  (455) 
c0692a,c1116a

>  <submitter_email>  (455) 
None

>  <ref_pdb>  (455) 
c0270a

>  <inchikey>  (455) 
JMRLTBDXIXMSSS-NSHDSACASA-N

>  <generation_date>  (455) 
None

>  <original ID>  (455) 
JMRLTBDXIXMSSS-NSHDSACASA-N

>  <tags>  (455) 
[]

>  <exports>  (455) 
nan

>  <method>  (455) 
None

>  <submitter_name>  (455) 
None

>  <original SMILES>  (455) 
CO[C@](C)(C(=O)O)C(=O)Nc1cc(Cl)c(F)cc1N

>  <ref_url>  (455) 
None

$$$$
JMRLTBDXIXMSSS-LLVKDONJSA-N
     RDKit          3D

 19 19  0  0  0  0  0  0  0  0999 V2000
   21.6512   11.4435   10.2536 C   0  0  0  0  0  0  0  0  0  0  0  0
   20.2325   11.5599   10.3268 O   0  0  0  0  0  0  0  0  0  0  0  0
   19.7291   12.5828   11.1838 C   0  0  1  0  0  0  0  0  0  0  0  0
   20.5594   12.6892   12.4767 C   0  0  0  0  0  0  0  0  0  0  0  0
   19.8118   14.0456   10.7129 C   0  0  0  0  0  0  0  0  0  0  0  0
   19.4609   15.0300   11.3470 O   0  0  0  0  0  0  0  0  0  0  0  0
   20.4387   14.2456    9.5349 O   0  0  0  0  0  0  0  0  0  0  0  0
   18.2320   12.2125   11.4869 C   0  0  0  0  0  0  0  0  0  0  0  0
   17.5827   12.8125   12.3450 O   0  0  0  0  0  0  0  0  0  0  0  0
   17.6883   11.1726   10.7254 N   0  0  0  0  0  0  0  0  0  0  0  0
   16.5055   10.4367   11.0128 C   0  0  0  0  0  0  0  0  0  0  0  0
   15.8949   10.5122   12.2520 C   0  0  0  0  0  0  0  0  0  0  0  0
   14.9371    9.5735   12.6069 C   0  0  0  0  0  0  0  0  0  0  0  0
   14.2273    9.7750   14.1414 Cl  0  0  0  0  0  0  0  0  0  0  0  0
   14.5865    8.5425   11.7411 C   0  0  0  0  0  0  0  0  0  0  0  0
   13.7125    7.5798   12.0710 F   0  0  0  0  0  0  0  0  0  0  0  0
   15.0784    8.5346   10.4632 C   0  0  0  0  0  0  0  0  0  0  0  0
   15.9933    9.5117   10.0790 C   0  0  0  0  0  0  0  0  0  0  0  0
   16.5002    9.3850    8.8098 N   0  0  0  0  0  0  0  0  0  0  0  0
  1  2  1  0
  3  2  1  0
  3  4  1  1
  3  5  1  0
  5  6  2  0
  5  7  1  0
  3  8  1  0
  8  9  2  0
  8 10  1  0
 10 11  1  0
 11 12  2  0
 12 13  1  0
 13 14  1  0
 13 15  2  0
 15 16  1  0
 15 17  1  0
 17 18  2  0
 18 19  1  0
 18 11  1  0
M  END
>  <HIPPO ID>  (456) 
115230

>  <alias>  (456) 
None

>  <ref_mols>  (456) 
c0692a,c1116a

>  <submitter_email>  (456) 
None

>  <ref_pdb>  (456) 
c0270a

>  <inchikey>  (456) 
JMRLTBDXIXMSSS-LLVKDONJSA-N

>  <generation_date>  (456) 
None

>  <original ID>  (456) 
JMRLTBDXIXMSSS-LLVKDONJSA-N

>  <tags>  (456) 
[]

>  <exports>  (456) 
nan

>  <method>  (456) 
None

>  <submitter_name>  (456) 
None

>  <original SMILES>  (456) 
CO[C@@](C)(C(=O)O)C(=O)Nc1cc(Cl)c(F)cc1N

>  <ref_url>  (456) 
None

$$$$
JTBPJYBCBXABPD-NSHDSACASA-N
     RDKit          3D

 19 19  0  0  0  0  0  0  0  0999 V2000
   21.6445   11.3144   10.4808 C   0  0  0  0  0  0  0  0  0  0  0  0
   20.2284   11.4257   10.5193 O   0  0  0  0  0  0  0  0  0  0  0  0
   19.6845   12.5481   11.2137 C   0  0  2  0  0  0  0  0  0  0  0  0
   20.0853   13.8507   10.5022 C   0  0  0  0  0  0  0  0  0  0  0  0
   20.1517   12.9482   12.6254 C   0  0  0  0  0  0  0  0  0  0  0  0
   19.6189   13.7942   13.3284 O   0  0  0  0  0  0  0  0  0  0  0  0
   21.3272   12.3993   12.9875 O   0  0  0  0  0  0  0  0  0  0  0  0
   18.1284   12.2551   11.2745 C   0  0  0  0  0  0  0  0  0  0  0  0
   17.3436   12.9579   11.9124 O   0  0  0  0  0  0  0  0  0  0  0  0
   17.6819   11.1344   10.5636 N   0  0  0  0  0  0  0  0  0  0  0  0
   16.5099   10.3767   10.8280 C   0  0  0  0  0  0  0  0  0  0  0  0
   15.9544   10.3695   12.0926 C   0  0  0  0  0  0  0  0  0  0  0  0
   15.0669    9.3537   12.4628 C   0  0  0  0  0  0  0  0  0  0  0  0
   14.4838    9.4671   14.4231 I   0  0  0  0  0  0  0  0  0  0  0  0
   14.6899    8.3573   11.5577 C   0  0  0  0  0  0  0  0  0  0  0  0
   13.7472    6.9564   11.9315 Cl  0  0  0  0  0  0  0  0  0  0  0  0
   15.1074    8.4677   10.2489 C   0  0  0  0  0  0  0  0  0  0  0  0
   15.9837    9.4847    9.8786 C   0  0  0  0  0  0  0  0  0  0  0  0
   16.3997    9.4549    8.5556 N   0  0  0  0  0  0  0  0  0  0  0  0
  1  2  1  0
  3  2  1  0
  3  4  1  6
  3  5  1  0
  5  6  2  0
  5  7  1  0
  3  8  1  0
  8  9  2  0
  8 10  1  0
 10 11  1  0
 11 12  2  0
 12 13  1  0
 13 14  1  0
 13 15  2  0
 15 16  1  0
 15 17  1  0
 17 18  2  0
 18 19  1  0
 18 11  1  0
M  END
>  <HIPPO ID>  (457) 
115256

>  <alias>  (457) 
None

>  <ref_mols>  (457) 
c0692a,c1116a

>  <submitter_email>  (457) 
None

>  <ref_pdb>  (457) 
c0270a

>  <inchikey>  (457) 
JTBPJYBCBXABPD-NSHDSACASA-N

>  <generation_date>  (457) 
None

>  <original ID>  (457) 
JTBPJYBCBXABPD-NSHDSACASA-N

>  <tags>  (457) 
[]

>  <exports>  (457) 
nan

>  <method>  (457) 
None

>  <submitter_name>  (457) 
None

>  <original SMILES>  (457) 
CO[C@](C)(C(=O)O)C(=O)Nc1cc(I)c(Cl)cc1N

>  <ref_url>  (457) 
None

$$$$
JTBPJYBCBXABPD-LLVKDONJSA-N
     RDKit          3D

 19 19  0  0  0  0  0  0  0  0999 V2000
   21.6452   11.3963   10.2518 C   0  0  0  0  0  0  0  0  0  0  0  0
   20.2239   11.5047   10.3088 O   0  0  0  0  0  0  0  0  0  0  0  0
   19.7058   12.5203   11.1670 C   0  0  1  0  0  0  0  0  0  0  0  0
   20.5365   12.6426   12.4596 C   0  0  0  0  0  0  0  0  0  0  0  0
   19.7922   13.9820   10.6981 C   0  0  0  0  0  0  0  0  0  0  0  0
   19.4150   14.9667   11.3150 O   0  0  0  0  0  0  0  0  0  0  0  0
   20.4763   14.1828    9.5540 O   0  0  0  0  0  0  0  0  0  0  0  0
   18.2066   12.1265   11.4612 C   0  0  0  0  0  0  0  0  0  0  0  0
   17.5690   12.6590   12.3710 O   0  0  0  0  0  0  0  0  0  0  0  0
   17.6532   11.1398   10.6306 N   0  0  0  0  0  0  0  0  0  0  0  0
   16.4972   10.3471   10.8876 C   0  0  0  0  0  0  0  0  0  0  0  0
   15.9467   10.2774   12.1537 C   0  0  0  0  0  0  0  0  0  0  0  0
   15.0500    9.2561   12.4853 C   0  0  0  0  0  0  0  0  0  0  0  0
   14.4513    9.3106   14.4459 I   0  0  0  0  0  0  0  0  0  0  0  0
   14.6644    8.3012   11.5433 C   0  0  0  0  0  0  0  0  0  0  0  0
   13.7012    6.9015   11.8627 Cl  0  0  0  0  0  0  0  0  0  0  0  0
   15.0829    8.4634   10.2404 C   0  0  0  0  0  0  0  0  0  0  0  0
   15.9588    9.4960    9.9046 C   0  0  0  0  0  0  0  0  0  0  0  0
   16.3684    9.5002    8.5794 N   0  0  0  0  0  0  0  0  0  0  0  0
  1  2  1  0
  3  2  1  0
  3  4  1  1
  3  5  1  0
  5  6  2  0
  5  7  1  0
  3  8  1  0
  8  9  2  0
  8 10  1  0
 10 11  1  0
 11 12  2  0
 12 13  1  0
 13 14  1  0
 13 15  2  0
 15 16  1  0
 15 17  1  0
 17 18  2  0
 18 19  1  0
 18 11  1  0
M  END
>  <HIPPO ID>  (458) 
115257

>  <alias>  (458) 
None

>  <ref_mols>  (458) 
c0692a,c1116a

>  <submitter_email>  (458) 
None

>  <ref_pdb>  (458) 
c0270a

>  <inchikey>  (458) 
JTBPJYBCBXABPD-LLVKDONJSA-N

>  <generation_date>  (458) 
None

>  <original ID>  (458) 
JTBPJYBCBXABPD-LLVKDONJSA-N

>  <tags>  (458) 
[]

>  <exports>  (458) 
nan

>  <method>  (458) 
None

>  <submitter_name>  (458) 
None

>  <original SMILES>  (458) 
CO[C@@](C)(C(=O)O)C(=O)Nc1cc(I)c(Cl)cc1N

>  <ref_url>  (458) 
None

$$$$
XRYMJFZPRACREX-NSHDSACASA-N
     RDKit          3D

 19 19  0  0  0  0  0  0  0  0999 V2000
   21.6042   11.2903   10.3414 C   0  0  0  0  0  0  0  0  0  0  0  0
   20.1887   11.4544   10.3594 O   0  0  0  0  0  0  0  0  0  0  0  0
   19.6870   12.5177   11.1790 C   0  0  2  0  0  0  0  0  0  0  0  0
   20.0507   13.8715   10.5490 C   0  0  0  0  0  0  0  0  0  0  0  0
   20.3449   12.7142   12.5469 C   0  0  0  0  0  0  0  0  0  0  0  0
   21.3637   12.1632   12.9311 O   0  0  0  0  0  0  0  0  0  0  0  0
   19.7783   13.6810   13.2948 O   0  0  0  0  0  0  0  0  0  0  0  0
   18.1394   12.2254   11.3371 C   0  0  0  0  0  0  0  0  0  0  0  0
   17.4034   12.8974   12.0605 O   0  0  0  0  0  0  0  0  0  0  0  0
   17.6469   11.1407   10.6015 N   0  0  0  0  0  0  0  0  0  0  0  0
   16.4766   10.3785   10.8679 C   0  0  0  0  0  0  0  0  0  0  0  0
   15.8906   10.3718   12.1207 C   0  0  0  0  0  0  0  0  0  0  0  0
   14.9968    9.3544   12.4715 C   0  0  0  0  0  0  0  0  0  0  0  0
   14.3529    9.4999   14.0485 Cl  0  0  0  0  0  0  0  0  0  0  0  0
   14.6855    8.3249   11.5766 C   0  0  0  0  0  0  0  0  0  0  0  0
   13.6462    6.5462   12.0141 I   0  0  0  0  0  0  0  0  0  0  0  0
   15.1207    8.4420   10.2719 C   0  0  0  0  0  0  0  0  0  0  0  0
   15.9648    9.4888    9.9071 C   0  0  0  0  0  0  0  0  0  0  0  0
   16.3782    9.4797    8.5831 N   0  0  0  0  0  0  0  0  0  0  0  0
  1  2  1  0
  3  2  1  0
  3  4  1  6
  3  5  1  0
  5  6  2  0
  5  7  1  0
  3  8  1  0
  8  9  2  0
  8 10  1  0
 10 11  1  0
 11 12  2  0
 12 13  1  0
 13 14  1  0
 13 15  2  0
 15 16  1  0
 15 17  1  0
 17 18  2  0
 18 19  1  0
 18 11  1  0
M  END
>  <HIPPO ID>  (459) 
115258

>  <alias>  (459) 
None

>  <ref_mols>  (459) 
c0692a,c1116a

>  <submitter_email>  (459) 
None

>  <ref_pdb>  (459) 
c0270a

>  <inchikey>  (459) 
XRYMJFZPRACREX-NSHDSACASA-N

>  <generation_date>  (459) 
None

>  <original ID>  (459) 
XRYMJFZPRACREX-NSHDSACASA-N

>  <tags>  (459) 
[]

>  <exports>  (459) 
nan

>  <method>  (459) 
None

>  <submitter_name>  (459) 
None

>  <original SMILES>  (459) 
CO[C@](C)(C(=O)O)C(=O)Nc1cc(Cl)c(I)cc1N

>  <ref_url>  (459) 
None

$$$$
XRYMJFZPRACREX-LLVKDONJSA-N
     RDKit          3D

 19 19  0  0  0  0  0  0  0  0999 V2000
   21.6345   11.1733   10.6473 C   0  0  0  0  0  0  0  0  0  0  0  0
   20.2290   11.2705   10.8355 O   0  0  0  0  0  0  0  0  0  0  0  0
   19.7028   12.5632   11.1727 C   0  0  1  0  0  0  0  0  0  0  0  0
   20.0685   12.9895   12.6070 C   0  0  0  0  0  0  0  0  0  0  0  0
   20.2591   13.7518   10.3570 C   0  0  0  0  0  0  0  0  0  0  0  0
   19.7223   14.4913    9.5567 O   0  0  0  0  0  0  0  0  0  0  0  0
   21.5767   13.9723   10.5758 O   0  0  0  0  0  0  0  0  0  0  0  0
   18.1398   12.3309   11.1853 C   0  0  0  0  0  0  0  0  0  0  0  0
   17.3716   13.0812   11.7936 O   0  0  0  0  0  0  0  0  0  0  0  0
   17.6723   11.1879   10.5273 N   0  0  0  0  0  0  0  0  0  0  0  0
   16.4968   10.4418   10.8186 C   0  0  0  0  0  0  0  0  0  0  0  0
   15.9031   10.4879   12.0661 C   0  0  0  0  0  0  0  0  0  0  0  0
   15.0177    9.4744   12.4543 C   0  0  0  0  0  0  0  0  0  0  0  0
   14.3666    9.6712   14.0225 Cl  0  0  0  0  0  0  0  0  0  0  0  0
   14.7215    8.4033   11.6019 C   0  0  0  0  0  0  0  0  0  0  0  0
   13.7160    6.6212   12.1062 I   0  0  0  0  0  0  0  0  0  0  0  0
   15.1580    8.4705   10.2951 C   0  0  0  0  0  0  0  0  0  0  0  0
   15.9974    9.5061    9.8949 C   0  0  0  0  0  0  0  0  0  0  0  0
   16.4124    9.4529    8.5716 N   0  0  0  0  0  0  0  0  0  0  0  0
  1  2  1  0
  3  2  1  0
  3  4  1  1
  3  5  1  0
  5  6  2  0
  5  7  1  0
  3  8  1  0
  8  9  2  0
  8 10  1  0
 10 11  1  0
 11 12  2  0
 12 13  1  0
 13 14  1  0
 13 15  2  0
 15 16  1  0
 15 17  1  0
 17 18  2  0
 18 19  1  0
 18 11  1  0
M  END
>  <HIPPO ID>  (460) 
115259

>  <alias>  (460) 
None

>  <ref_mols>  (460) 
c0692a,c1116a

>  <submitter_email>  (460) 
None

>  <ref_pdb>  (460) 
c0270a

>  <inchikey>  (460) 
XRYMJFZPRACREX-LLVKDONJSA-N

>  <generation_date>  (460) 
None

>  <original ID>  (460) 
XRYMJFZPRACREX-LLVKDONJSA-N

>  <tags>  (460) 
[]

>  <exports>  (460) 
nan

>  <method>  (460) 
None

>  <submitter_name>  (460) 
None

>  <original SMILES>  (460) 
CO[C@@](C)(C(=O)O)C(=O)Nc1cc(Cl)c(I)cc1N

>  <ref_url>  (460) 
None

$$$$
GTYJFZDFHOWFPW-UHFFFAOYSA-N
     RDKit          3D

 23 24  0  0  0  0  0  0  0  0999 V2000
   18.0228    2.2474   19.0049 C   0  0  0  0  0  0  0  0  0  0  0  0
   19.0933    1.7908   18.0387 C   0  0  0  0  0  0  0  0  0  0  0  0
   18.7948    2.1426   16.5875 C   0  0  0  0  0  0  0  0  0  0  0  0
   17.5055    1.7892   16.0071 N   0  0  0  0  0  0  0  0  0  0  0  0
   16.8064    0.6036   16.1225 C   0  0  0  0  0  0  0  0  0  0  0  0
   15.7244    0.4569   15.5666 O   0  0  0  0  0  0  0  0  0  0  0  0
   17.3217   -0.5112   16.8994 C   0  0  0  0  0  0  0  0  0  0  0  0
   16.5850   -1.2013   17.9153 C   0  0  0  0  0  0  0  0  0  0  0  0
   15.2154   -0.8900   18.4122 C   0  0  0  0  0  0  0  0  0  0  0  0
   17.2915   -2.2052   18.4511 N   0  0  0  0  0  0  0  0  0  0  0  0
   18.4308   -2.1989   17.7561 N   0  0  0  0  0  0  0  0  0  0  0  0
   18.5150   -1.2058   16.8163 C   0  0  0  0  0  0  0  0  0  0  0  0
   19.6319   -1.0741   16.0574 N   0  0  0  0  0  0  0  0  0  0  0  0
   16.7511    2.8651   15.5843 C   0  0  0  0  0  0  0  0  0  0  0  0
   16.3566    3.7797   16.3040 O   0  0  0  0  0  0  0  0  0  0  0  0
   16.6447    3.0343   14.1212 C   0  0  0  0  0  0  0  0  0  0  0  0
   15.4548    2.8921   13.5271 C   0  0  0  0  0  0  0  0  0  0  0  0
   15.3088    3.2472   12.1353 C   0  0  0  0  0  0  0  0  0  0  0  0
   16.3333    3.7450   11.4355 C   0  0  0  0  0  0  0  0  0  0  0  0
   17.6256    3.9685   12.1191 C   0  0  0  0  0  0  0  0  0  0  0  0
   18.5251    4.5915   11.5573 O   0  0  0  0  0  0  0  0  0  0  0  0
   17.7005    3.5452   13.4186 N   0  0  0  0  0  0  0  0  0  0  0  0
   18.7754    4.0360   14.1838 O   0  0  0  0  0  0  0  0  0  0  0  0
  1  2  1  0
  2  3  1  0
  3  4  1  0
  4  5  1  0
  5  6  2  0
  5  7  1  0
  7  8  1  0
  8  9  1  0
  8 10  2  0
 10 11  1  0
 11 12  1  0
 12 13  1  0
  4 14  1  0
 14 15  2  0
 14 16  1  0
 16 17  2  0
 17 18  1  0
 18 19  2  0
 19 20  1  0
 20 21  2  0
 20 22  1  0
 22 23  1  0
 12  7  2  0
 22 16  1  0
M  END
>  <HIPPO ID>  (461) 
116173

>  <alias>  (461) 
None

>  <ref_mols>  (461) 
c0732a,c1135a

>  <submitter_email>  (461) 
None

>  <ref_pdb>  (461) 
c0300a

>  <inchikey>  (461) 
GTYJFZDFHOWFPW-UHFFFAOYSA-N

>  <generation_date>  (461) 
None

>  <original ID>  (461) 
GTYJFZDFHOWFPW-UHFFFAOYSA-N

>  <tags>  (461) 
[]

>  <exports>  (461) 
nan

>  <method>  (461) 
None

>  <submitter_name>  (461) 
None

>  <original SMILES>  (461) 
CCCN(C(=O)c1c(C)n[nH]c1N)C(=O)c1cccc(=O)n1O

>  <ref_url>  (461) 
None

$$$$
JENQWRMJEYNQBU-UHFFFAOYSA-N
     RDKit          3D

 23 24  0  0  0  0  0  0  0  0999 V2000
   18.2928    3.9007   18.2471 C   0  0  0  0  0  0  0  0  0  0  0  0
   18.9413    3.5781   16.9151 C   0  0  0  0  0  0  0  0  0  0  0  0
   18.6216    2.1601   16.4173 C   0  0  0  0  0  0  0  0  0  0  0  0
   17.2559    1.8819   15.9765 N   0  0  0  0  0  0  0  0  0  0  0  0
   16.4244    1.1018   16.7573 C   0  0  0  0  0  0  0  0  0  0  0  0
   15.3263    1.5418   17.0991 O   0  0  0  0  0  0  0  0  0  0  0  0
   16.8043   -0.2273   17.2649 C   0  0  0  0  0  0  0  0  0  0  0  0
   15.8926   -0.9137   18.0595 C   0  0  0  0  0  0  0  0  0  0  0  0
   16.4362   -2.0990   18.4049 N   0  0  0  0  0  0  0  0  0  0  0  0
   17.6618   -2.2724   17.9022 N   0  0  0  0  0  0  0  0  0  0  0  0
   17.9004   -1.1481   17.1919 C   0  0  0  0  0  0  0  0  0  0  0  0
   19.1864   -1.1212   16.5205 C   0  0  0  0  0  0  0  0  0  0  0  0
   19.5561   -0.3171   15.6757 O   0  0  0  0  0  0  0  0  0  0  0  0
   16.5818    2.9136   15.3612 C   0  0  0  0  0  0  0  0  0  0  0  0
   16.1828    3.9485   15.8965 O   0  0  0  0  0  0  0  0  0  0  0  0
   16.5159    2.8948   13.8909 C   0  0  0  0  0  0  0  0  0  0  0  0
   15.2958    2.9692   13.3469 C   0  0  0  0  0  0  0  0  0  0  0  0
   15.1551    3.3402   11.9582 C   0  0  0  0  0  0  0  0  0  0  0  0
   16.2088    3.7567   11.2478 C   0  0  0  0  0  0  0  0  0  0  0  0
   17.5253    3.8377   11.9187 C   0  0  0  0  0  0  0  0  0  0  0  0
   18.4463    4.4993   11.4378 O   0  0  0  0  0  0  0  0  0  0  0  0
   17.6069    3.2453   13.1519 N   0  0  0  0  0  0  0  0  0  0  0  0
   18.7350    3.5971   13.8994 O   0  0  0  0  0  0  0  0  0  0  0  0
  1  2  1  0
  2  3  1  0
  3  4  1  0
  4  5  1  0
  5  6  2  0
  5  7  1  0
  7  8  2  0
  8  9  1  0
  9 10  1  0
 10 11  2  0
 11 12  1  0
 12 13  2  0
  4 14  1  0
 14 15  2  0
 14 16  1  0
 16 17  2  0
 17 18  1  0
 18 19  2  0
 19 20  1  0
 20 21  2  0
 20 22  1  0
 22 23  1  0
 11  7  1  0
 22 16  1  0
M  END
>  <HIPPO ID>  (462) 
116414

>  <alias>  (462) 
None

>  <ref_mols>  (462) 
c0732a,c1135a

>  <submitter_email>  (462) 
None

>  <ref_pdb>  (462) 
c0300a

>  <inchikey>  (462) 
JENQWRMJEYNQBU-UHFFFAOYSA-N

>  <generation_date>  (462) 
None

>  <original ID>  (462) 
JENQWRMJEYNQBU-UHFFFAOYSA-N

>  <tags>  (462) 
[]

>  <exports>  (462) 
nan

>  <method>  (462) 
None

>  <submitter_name>  (462) 
None

>  <original SMILES>  (462) 
CCCN(C(=O)c1c[nH]nc1C=O)C(=O)c1cccc(=O)n1O

>  <ref_url>  (462) 
None

$$$$
MMCAVLVWPKPZBF-LLVKDONJSA-N
     RDKit          3D

 27 29  0  0  0  0  0  0  0  0999 V2000
   19.7352   -0.7406   15.7877 O   0  0  0  0  0  0  0  0  0  0  0  0
   19.0302   -0.1345   16.5927 C   0  0  0  0  0  0  0  0  0  0  0  0
   17.6700   -0.5149   16.9513 C   0  0  0  0  0  0  0  0  0  0  0  0
   17.4570   -1.8159   17.2490 N   0  0  0  0  0  0  0  0  0  0  0  0
   16.2010   -1.8504   17.7039 N   0  0  0  0  0  0  0  0  0  0  0  0
   15.5838   -0.6514   17.6438 C   0  0  0  0  0  0  0  0  0  0  0  0
   16.4807    0.2740   17.1302 C   0  0  0  0  0  0  0  0  0  0  0  0
   16.0250    1.6616   16.9603 C   0  0  0  0  0  0  0  0  0  0  0  0
   15.0982    2.0677   17.6640 O   0  0  0  0  0  0  0  0  0  0  0  0
   16.5324    2.5434   16.0131 N   0  0  0  0  0  0  0  0  0  0  0  0
   17.6460    2.3043   15.2272 C   0  0  0  0  0  0  0  0  0  0  0  0
   18.7921    2.3111   15.6644 O   0  0  0  0  0  0  0  0  0  0  0  0
   17.3804    2.6139   13.8017 C   0  0  0  0  0  0  0  0  0  0  0  0
   16.2157    2.3086   13.2339 C   0  0  0  0  0  0  0  0  0  0  0  0
   15.7693    2.9906   12.0425 C   0  0  0  0  0  0  0  0  0  0  0  0
   16.5987    3.8077   11.4012 C   0  0  0  0  0  0  0  0  0  0  0  0
   17.9574    3.9680   11.9487 C   0  0  0  0  0  0  0  0  0  0  0  0
   18.7866    4.6202   11.3405 O   0  0  0  0  0  0  0  0  0  0  0  0
   18.2316    3.4488   13.1655 N   0  0  0  0  0  0  0  0  0  0  0  0
   15.8516    3.8470   15.7625 C   0  0  2  0  0  0  0  0  0  0  0  0
   15.7347    4.8238   16.9288 C   0  0  0  0  0  0  0  0  0  0  0  0
   15.4765    6.2251   16.3384 C   0  0  0  0  0  0  0  0  0  0  0  0
   14.4362    6.2311   15.2303 C   0  0  0  0  0  0  0  0  0  0  0  0
   14.1390    7.2127   14.5620 O   0  0  0  0  0  0  0  0  0  0  0  0
   13.8386    5.0507   14.9589 N   0  0  0  0  0  0  0  0  0  0  0  0
   14.5067    3.8656   14.9908 C   0  0  0  0  0  0  0  0  0  0  0  0
   14.0261    2.9885   14.2870 O   0  0  0  0  0  0  0  0  0  0  0  0
  1  2  2  0
  2  3  1  0
  3  4  2  0
  4  5  1  0
  5  6  1  0
  6  7  2  0
  7  8  1  0
  8  9  2  0
  8 10  1  0
 10 11  1  0
 11 12  2  0
 11 13  1  0
 13 14  2  0
 14 15  1  0
 15 16  2  0
 16 17  1  0
 17 18  2  0
 17 19  1  0
 20 10  1  1
 20 21  1  0
 21 22  1  0
 22 23  1  0
 23 24  2  0
 23 25  1  0
 25 26  1  0
 26 27  2  0
  7  3  1  0
 19 13  1  0
 26 20  1  0
M  END
>  <HIPPO ID>  (463) 
117188

>  <alias>  (463) 
None

>  <ref_mols>  (463) 
c0732a,c1135a

>  <submitter_email>  (463) 
None

>  <ref_pdb>  (463) 
c0300a

>  <inchikey>  (463) 
MMCAVLVWPKPZBF-LLVKDONJSA-N

>  <generation_date>  (463) 
None

>  <original ID>  (463) 
MMCAVLVWPKPZBF-LLVKDONJSA-N

>  <tags>  (463) 
[]

>  <exports>  (463) 
nan

>  <method>  (463) 
None

>  <submitter_name>  (463) 
None

>  <original SMILES>  (463) 
O=Cc1n[nH]cc1C(=O)N(C(=O)c1cccc(=O)[nH]1)[C@@H]1CCC(=O)NC1=O

>  <ref_url>  (463) 
None

$$$$
MMCAVLVWPKPZBF-NSHDSACASA-N
     RDKit          3D

 27 29  0  0  0  0  0  0  0  0999 V2000
   19.8946   -1.1676   15.9481 O   0  0  0  0  0  0  0  0  0  0  0  0
   19.1929   -0.4257   16.6361 C   0  0  0  0  0  0  0  0  0  0  0  0
   17.8294   -0.7319   17.0629 C   0  0  0  0  0  0  0  0  0  0  0  0
   17.5521   -1.9937   17.4550 N   0  0  0  0  0  0  0  0  0  0  0  0
   16.2810   -1.9434   17.8658 N   0  0  0  0  0  0  0  0  0  0  0  0
   15.7163   -0.7253   17.7080 C   0  0  0  0  0  0  0  0  0  0  0  0
   16.6730    0.1186   17.1684 C   0  0  0  0  0  0  0  0  0  0  0  0
   16.3324    1.5185   16.8763 C   0  0  0  0  0  0  0  0  0  0  0  0
   15.2563    1.9720   17.2643 O   0  0  0  0  0  0  0  0  0  0  0  0
   17.1726    2.3431   16.1551 N   0  0  0  0  0  0  0  0  0  0  0  0
   17.5968    1.8014   14.9556 C   0  0  0  0  0  0  0  0  0  0  0  0
   18.6743    1.2194   14.8909 O   0  0  0  0  0  0  0  0  0  0  0  0
   17.0093    2.3912   13.6995 C   0  0  0  0  0  0  0  0  0  0  0  0
   15.7043    2.5450   13.4289 C   0  0  0  0  0  0  0  0  0  0  0  0
   15.3142    3.3559   12.2947 C   0  0  0  0  0  0  0  0  0  0  0  0
   16.2256    4.0039   11.5594 C   0  0  0  0  0  0  0  0  0  0  0  0
   17.6515    3.8731   11.9188 C   0  0  0  0  0  0  0  0  0  0  0  0
   18.5128    4.5771   11.4087 O   0  0  0  0  0  0  0  0  0  0  0  0
   17.9431    2.9934   12.8988 N   0  0  0  0  0  0  0  0  0  0  0  0
   16.8447    3.7740   16.0337 C   0  0  1  0  0  0  0  0  0  0  0  0
   16.4375    4.6363   17.2217 C   0  0  0  0  0  0  0  0  0  0  0  0
   15.9302    5.9755   16.6316 C   0  0  0  0  0  0  0  0  0  0  0  0
   16.7360    6.4553   15.4250 C   0  0  0  0  0  0  0  0  0  0  0  0
   16.3490    7.2920   14.6200 O   0  0  0  0  0  0  0  0  0  0  0  0
   17.9427    5.8542   15.2754 N   0  0  0  0  0  0  0  0  0  0  0  0
   18.0794    4.5126   15.4454 C   0  0  0  0  0  0  0  0  0  0  0  0
   19.0997    3.9675   15.0370 O   0  0  0  0  0  0  0  0  0  0  0  0
  1  2  2  0
  2  3  1  0
  3  4  2  0
  4  5  1  0
  5  6  1  0
  6  7  2  0
  7  8  1  0
  8  9  2  0
  8 10  1  0
 10 11  1  0
 11 12  2  0
 11 13  1  0
 13 14  2  0
 14 15  1  0
 15 16  2  0
 16 17  1  0
 17 18  2  0
 17 19  1  0
 20 10  1  1
 20 21  1  0
 21 22  1  0
 22 23  1  0
 23 24  2  0
 23 25  1  0
 25 26  1  0
 26 27  2  0
  7  3  1  0
 19 13  1  0
 26 20  1  0
M  END
>  <HIPPO ID>  (464) 
117189

>  <alias>  (464) 
None

>  <ref_mols>  (464) 
c0732a,c1135a

>  <submitter_email>  (464) 
None

>  <ref_pdb>  (464) 
c0300a

>  <inchikey>  (464) 
MMCAVLVWPKPZBF-NSHDSACASA-N

>  <generation_date>  (464) 
None

>  <original ID>  (464) 
MMCAVLVWPKPZBF-NSHDSACASA-N

>  <tags>  (464) 
[]

>  <exports>  (464) 
nan

>  <method>  (464) 
None

>  <submitter_name>  (464) 
None

>  <original SMILES>  (464) 
O=Cc1n[nH]cc1C(=O)N(C(=O)c1cccc(=O)[nH]1)[C@H]1CCC(=O)NC1=O

>  <ref_url>  (464) 
None

$$$$
DQQBLQFWBKXEGA-JTQLQIEISA-N
     RDKit          3D

 27 29  0  0  0  0  0  0  0  0999 V2000
   19.0974   -0.1569   15.7799 O   0  0  0  0  0  0  0  0  0  0  0  0
   19.0826   -1.1579   16.4906 C   0  0  0  0  0  0  0  0  0  0  0  0
   17.9695   -1.5558   17.3403 C   0  0  0  0  0  0  0  0  0  0  0  0
   18.0020   -2.7595   17.9422 N   0  0  0  0  0  0  0  0  0  0  0  0
   16.8680   -2.7971   18.6626 N   0  0  0  0  0  0  0  0  0  0  0  0
   16.0967   -1.6951   18.5100 C   0  0  0  0  0  0  0  0  0  0  0  0
   16.7886   -0.8356   17.6843 C   0  0  0  0  0  0  0  0  0  0  0  0
   16.3245    0.5044   17.3707 C   0  0  0  0  0  0  0  0  0  0  0  0
   15.1551    0.8204   17.5657 O   0  0  0  0  0  0  0  0  0  0  0  0
   17.2911    1.4486   17.1695 N   0  0  0  0  0  0  0  0  0  0  0  0
   18.2624    1.6685   18.1259 C   0  0  0  0  0  0  0  0  0  0  0  0
   19.1055    0.8479   18.4764 O   0  0  0  0  0  0  0  0  0  0  0  0
   18.3632    3.1051   18.6160 C   0  0  0  0  0  0  0  0  0  0  0  0
   18.3644    4.1042   17.4654 C   0  0  0  0  0  0  0  0  0  0  0  0
   18.2704    3.3537   16.1566 C   0  0  2  0  0  0  0  0  0  0  0  0
   18.0197    4.1725   15.0165 N   0  0  0  0  0  0  0  0  0  0  0  0
   18.2095    3.4545   13.8554 C   0  0  0  0  0  0  0  0  0  0  0  0
   19.0834    2.6295   13.6787 O   0  0  0  0  0  0  0  0  0  0  0  0
   17.1903    3.7798   12.8706 C   0  0  0  0  0  0  0  0  0  0  0  0
   16.1624    2.9659   12.6315 C   0  0  0  0  0  0  0  0  0  0  0  0
   15.1729    3.3564   11.6635 C   0  0  0  0  0  0  0  0  0  0  0  0
   15.1621    4.5963   11.1679 C   0  0  0  0  0  0  0  0  0  0  0  0
   16.2018    5.5313   11.6268 C   0  0  0  0  0  0  0  0  0  0  0  0
   16.2255    6.7013   11.2954 O   0  0  0  0  0  0  0  0  0  0  0  0
   17.2083    5.0393   12.3838 N   0  0  0  0  0  0  0  0  0  0  0  0
   17.0513    2.4336   16.2545 C   0  0  0  0  0  0  0  0  0  0  0  0
   16.0082    2.6708   15.6449 O   0  0  0  0  0  0  0  0  0  0  0  0
  1  2  2  0
  2  3  1  0
  3  4  2  0
  4  5  1  0
  5  6  1  0
  6  7  2  0
  7  8  1  0
  8  9  2  0
  8 10  1  0
 10 11  1  0
 11 12  2  0
 11 13  1  0
 13 14  1  0
 14 15  1  0
 15 16  1  6
 16 17  1  0
 17 18  2  0
 17 19  1  0
 19 20  2  0
 20 21  1  0
 21 22  2  0
 22 23  1  0
 23 24  2  0
 23 25  1  0
 15 26  1  0
 26 27  2  0
  7  3  1  0
 26 10  1  0
 25 19  1  0
M  END
>  <HIPPO ID>  (465) 
117190

>  <alias>  (465) 
None

>  <ref_mols>  (465) 
c0732a,c1135a

>  <submitter_email>  (465) 
None

>  <ref_pdb>  (465) 
c0300a

>  <inchikey>  (465) 
DQQBLQFWBKXEGA-JTQLQIEISA-N

>  <generation_date>  (465) 
None

>  <original ID>  (465) 
DQQBLQFWBKXEGA-JTQLQIEISA-N

>  <tags>  (465) 
[]

>  <exports>  (465) 
nan

>  <method>  (465) 
None

>  <submitter_name>  (465) 
None

>  <original SMILES>  (465) 
O=Cc1n[nH]cc1C(=O)N1C(=O)CC[C@H](NC(=O)c2cccc(=O)[nH]2)C1=O

>  <ref_url>  (465) 
None

$$$$
DQQBLQFWBKXEGA-SNVBAGLBSA-N
     RDKit          3D

 27 29  0  0  0  0  0  0  0  0999 V2000
   19.7540   -1.4784   15.8822 O   0  0  0  0  0  0  0  0  0  0  0  0
   19.8366   -2.0233   16.9819 C   0  0  0  0  0  0  0  0  0  0  0  0
   18.7101   -2.2126   17.8849 C   0  0  0  0  0  0  0  0  0  0  0  0
   18.7733   -3.1141   18.8830 N   0  0  0  0  0  0  0  0  0  0  0  0
   17.5514   -3.0742   19.4465 N   0  0  0  0  0  0  0  0  0  0  0  0
   16.7125   -2.1916   18.8435 C   0  0  0  0  0  0  0  0  0  0  0  0
   17.4406   -1.5818   17.8419 C   0  0  0  0  0  0  0  0  0  0  0  0
   16.9129   -0.5858   16.9344 C   0  0  0  0  0  0  0  0  0  0  0  0
   15.8394   -0.8096   16.3775 O   0  0  0  0  0  0  0  0  0  0  0  0
   17.5576    0.6351   16.8396 N   0  0  0  0  0  0  0  0  0  0  0  0
   18.3405    1.1895   17.8343 C   0  0  0  0  0  0  0  0  0  0  0  0
   19.3373    0.6514   18.3117 O   0  0  0  0  0  0  0  0  0  0  0  0
   18.0229    2.6461   18.1694 C   0  0  0  0  0  0  0  0  0  0  0  0
   16.5122    2.8781   18.1881 C   0  0  0  0  0  0  0  0  0  0  0  0
   15.8521    2.3289   16.9231 C   0  0  1  0  0  0  0  0  0  0  0  0
   15.2169    3.2700   16.0167 N   0  0  0  0  0  0  0  0  0  0  0  0
   15.9332    4.3368   15.5292 C   0  0  0  0  0  0  0  0  0  0  0  0
   16.7399    4.9919   16.1750 O   0  0  0  0  0  0  0  0  0  0  0  0
   15.8503    4.4578   14.0494 C   0  0  0  0  0  0  0  0  0  0  0  0
   14.6988    4.4098   13.3655 C   0  0  0  0  0  0  0  0  0  0  0  0
   14.7386    4.3135   11.9248 C   0  0  0  0  0  0  0  0  0  0  0  0
   15.9116    4.2736   11.2772 C   0  0  0  0  0  0  0  0  0  0  0  0
   17.1771    4.4147   12.0443 C   0  0  0  0  0  0  0  0  0  0  0  0
   18.2658    4.5175   11.4867 O   0  0  0  0  0  0  0  0  0  0  0  0
   17.0519    4.5071   13.3930 N   0  0  0  0  0  0  0  0  0  0  0  0
   16.8715    1.5341   16.0884 C   0  0  0  0  0  0  0  0  0  0  0  0
   17.1175    1.7778   14.9102 O   0  0  0  0  0  0  0  0  0  0  0  0
  1  2  2  0
  2  3  1  0
  3  4  2  0
  4  5  1  0
  5  6  1  0
  6  7  2  0
  7  8  1  0
  8  9  2  0
  8 10  1  0
 10 11  1  0
 11 12  2  0
 11 13  1  0
 13 14  1  0
 14 15  1  0
 15 16  1  6
 16 17  1  0
 17 18  2  0
 17 19  1  0
 19 20  2  0
 20 21  1  0
 21 22  2  0
 22 23  1  0
 23 24  2  0
 23 25  1  0
 15 26  1  0
 26 27  2  0
  7  3  1  0
 26 10  1  0
 25 19  1  0
M  END
>  <HIPPO ID>  (466) 
117191

>  <alias>  (466) 
None

>  <ref_mols>  (466) 
c0732a,c1135a

>  <submitter_email>  (466) 
None

>  <ref_pdb>  (466) 
c0300a

>  <inchikey>  (466) 
DQQBLQFWBKXEGA-SNVBAGLBSA-N

>  <generation_date>  (466) 
None

>  <original ID>  (466) 
DQQBLQFWBKXEGA-SNVBAGLBSA-N

>  <tags>  (466) 
[]

>  <exports>  (466) 
nan

>  <method>  (466) 
None

>  <submitter_name>  (466) 
None

>  <original SMILES>  (466) 
O=Cc1n[nH]cc1C(=O)N1C(=O)CC[C@@H](NC(=O)c2cccc(=O)[nH]2)C1=O

>  <ref_url>  (466) 
None

$$$$
ATVJRENHXVTGIM-SECBINFHSA-N
     RDKit          3D

 27 29  0  0  0  0  0  0  0  0999 V2000
   19.5971   -1.3630   16.5848 C   0  0  0  0  0  0  0  0  0  0  0  0
   18.2785   -1.5083   17.2453 C   0  0  0  0  0  0  0  0  0  0  0  0
   18.0740   -2.5402   18.0745 N   0  0  0  0  0  0  0  0  0  0  0  0
   16.8123   -2.3604   18.5121 N   0  0  0  0  0  0  0  0  0  0  0  0
   16.1949   -1.2789   17.9537 C   0  0  0  0  0  0  0  0  0  0  0  0
   14.9232   -0.9397   18.2630 N   0  0  0  0  0  0  0  0  0  0  0  0
   17.1212   -0.6982   17.1200 C   0  0  0  0  0  0  0  0  0  0  0  0
   16.8764    0.4796   16.3227 C   0  0  0  0  0  0  0  0  0  0  0  0
   15.8214    0.6170   15.7155 O   0  0  0  0  0  0  0  0  0  0  0  0
   17.8318    1.4618   16.3803 N   0  0  0  0  0  0  0  0  0  0  0  0
   18.4292    1.7591   17.5696 C   0  0  0  0  0  0  0  0  0  0  0  0
   19.6186    1.5655   17.7902 O   0  0  0  0  0  0  0  0  0  0  0  0
   17.5355    2.4902   18.5529 C   0  0  0  0  0  0  0  0  0  0  0  0
   17.0502    3.7644   17.8770 C   0  0  0  0  0  0  0  0  0  0  0  0
   16.4618    3.4507   16.4969 C   0  0  1  0  0  0  0  0  0  0  0  0
   16.1920    4.6812   15.7645 N   0  0  0  0  0  0  0  0  0  0  0  0
   15.1905    4.5931   14.8321 C   0  0  0  0  0  0  0  0  0  0  0  0
   14.0331    4.8074   15.1734 O   0  0  0  0  0  0  0  0  0  0  0  0
   15.5878    4.3157   13.4360 C   0  0  0  0  0  0  0  0  0  0  0  0
   14.6280    4.1307   12.5277 C   0  0  0  0  0  0  0  0  0  0  0  0
   14.9805    3.7485   11.1911 C   0  0  0  0  0  0  0  0  0  0  0  0
   16.2643    3.6842   10.8254 C   0  0  0  0  0  0  0  0  0  0  0  0
   17.3261    4.0653   11.7914 C   0  0  0  0  0  0  0  0  0  0  0  0
   18.4921    4.2374   11.4476 O   0  0  0  0  0  0  0  0  0  0  0  0
   16.9003    4.3151   13.0560 N   0  0  0  0  0  0  0  0  0  0  0  0
   17.4888    2.6025   15.7439 C   0  0  0  0  0  0  0  0  0  0  0  0
   18.0702    2.9996   14.7418 O   0  0  0  0  0  0  0  0  0  0  0  0
  1  2  1  0
  2  3  2  0
  3  4  1  0
  4  5  1  0
  5  6  1  0
  5  7  2  0
  7  8  1  0
  8  9  2  0
  8 10  1  0
 10 11  1  0
 11 12  2  0
 11 13  1  0
 13 14  1  0
 14 15  1  0
 15 16  1  6
 16 17  1  0
 17 18  2  0
 17 19  1  0
 19 20  2  0
 20 21  1  0
 21 22  2  0
 22 23  1  0
 23 24  2  0
 23 25  1  0
 15 26  1  0
 26 27  2  0
  7  2  1  0
 26 10  1  0
 25 19  1  0
M  END
>  <HIPPO ID>  (467) 
117295

>  <alias>  (467) 
None

>  <ref_mols>  (467) 
c0732a,c1135a

>  <submitter_email>  (467) 
None

>  <ref_pdb>  (467) 
c0300a

>  <inchikey>  (467) 
ATVJRENHXVTGIM-SECBINFHSA-N

>  <generation_date>  (467) 
None

>  <original ID>  (467) 
ATVJRENHXVTGIM-SECBINFHSA-N

>  <tags>  (467) 
[]

>  <exports>  (467) 
nan

>  <method>  (467) 
None

>  <submitter_name>  (467) 
None

>  <original SMILES>  (467) 
Cc1n[nH]c(N)c1C(=O)N1C(=O)CC[C@@H](NC(=O)c2cccc(=O)[nH]2)C1=O

>  <ref_url>  (467) 
None

$$$$
HWSNKHLLEGQQFC-VIFPVBQESA-N
     RDKit          3D

 27 29  0  0  0  0  0  0  0  0999 V2000
   19.5497   -0.1132   17.0317 C   0  0  0  0  0  0  0  0  0  0  0  0
   18.1572   -0.5883   17.2068 C   0  0  0  0  0  0  0  0  0  0  0  0
   18.0295   -1.9006   17.4790 N   0  0  0  0  0  0  0  0  0  0  0  0
   16.7570   -2.0167   17.8634 N   0  0  0  0  0  0  0  0  0  0  0  0
   16.0436   -0.8712   17.7236 C   0  0  0  0  0  0  0  0  0  0  0  0
   14.7506   -0.8441   18.0995 N   0  0  0  0  0  0  0  0  0  0  0  0
   16.8943    0.1049   17.2171 C   0  0  0  0  0  0  0  0  0  0  0  0
   16.3972    1.4700   16.9344 C   0  0  0  0  0  0  0  0  0  0  0  0
   15.2551    1.7731   17.2887 O   0  0  0  0  0  0  0  0  0  0  0  0
   17.1126    2.4246   16.2099 N   0  0  0  0  0  0  0  0  0  0  0  0
   17.7752    1.9453   15.0811 C   0  0  0  0  0  0  0  0  0  0  0  0
   18.9430    1.5670   15.1109 O   0  0  0  0  0  0  0  0  0  0  0  0
   17.2187    2.3898   13.7445 C   0  0  0  0  0  0  0  0  0  0  0  0
   15.9301    2.3593   13.3627 C   0  0  0  0  0  0  0  0  0  0  0  0
   15.5092    3.1149   12.2026 C   0  0  0  0  0  0  0  0  0  0  0  0
   16.3853    3.8373   11.4982 C   0  0  0  0  0  0  0  0  0  0  0  0
   17.7968    3.8480   11.9266 C   0  0  0  0  0  0  0  0  0  0  0  0
   18.6171    4.5796   11.3918 O   0  0  0  0  0  0  0  0  0  0  0  0
   18.1224    3.0823   12.9893 N   0  0  0  0  0  0  0  0  0  0  0  0
   16.4524    3.7187   15.9399 C   0  0  1  0  0  0  0  0  0  0  0  0
   15.5905    4.5700   16.8545 C   0  0  0  0  0  0  0  0  0  0  0  0
   14.7255    5.4469   15.8837 C   0  0  0  0  0  0  0  0  0  0  0  0
   15.4889    5.9072   14.6358 C   0  0  0  0  0  0  0  0  0  0  0  0
   14.9608    6.2525   13.5853 O   0  0  0  0  0  0  0  0  0  0  0  0
   16.8440    5.8580   14.7812 N   0  0  0  0  0  0  0  0  0  0  0  0
   17.4450    4.7630   15.3491 C   0  0  0  0  0  0  0  0  0  0  0  0
   18.6633    4.6294   15.2942 O   0  0  0  0  0  0  0  0  0  0  0  0
  1  2  1  0
  2  3  2  0
  3  4  1  0
  4  5  1  0
  5  6  1  0
  5  7  2  0
  7  8  1  0
  8  9  2  0
  8 10  1  0
 10 11  1  0
 11 12  2  0
 11 13  1  0
 13 14  2  0
 14 15  1  0
 15 16  2  0
 16 17  1  0
 17 18  2  0
 17 19  1  0
 20 10  1  1
 20 21  1  0
 21 22  1  0
 22 23  1  0
 23 24  2  0
 23 25  1  0
 25 26  1  0
 26 27  2  0
  7  2  1  0
 19 13  1  0
 26 20  1  0
M  END
>  <HIPPO ID>  (468) 
117296

>  <alias>  (468) 
None

>  <ref_mols>  (468) 
c0732a,c1135a

>  <submitter_email>  (468) 
None

>  <ref_pdb>  (468) 
c0300a

>  <inchikey>  (468) 
HWSNKHLLEGQQFC-VIFPVBQESA-N

>  <generation_date>  (468) 
None

>  <original ID>  (468) 
HWSNKHLLEGQQFC-VIFPVBQESA-N

>  <tags>  (468) 
[]

>  <exports>  (468) 
nan

>  <method>  (468) 
None

>  <submitter_name>  (468) 
None

>  <original SMILES>  (468) 
Cc1n[nH]c(N)c1C(=O)N(C(=O)c1cccc(=O)[nH]1)[C@H]1CCC(=O)NC1=O

>  <ref_url>  (468) 
None

$$$$
HWSNKHLLEGQQFC-VIFPVBQESA-N
     RDKit          3D

 27 29  0  0  0  0  0  0  0  0999 V2000
   19.5743   -0.1291   16.9856 C   0  0  0  0  0  0  0  0  0  0  0  0
   18.1760   -0.5958   17.1317 C   0  0  0  0  0  0  0  0  0  0  0  0
   18.0197   -1.9154   17.3436 N   0  0  0  0  0  0  0  0  0  0  0  0
   16.7471   -2.0159   17.7386 N   0  0  0  0  0  0  0  0  0  0  0  0
   16.0577   -0.8493   17.6540 C   0  0  0  0  0  0  0  0  0  0  0  0
   14.7688   -0.8126   18.0393 N   0  0  0  0  0  0  0  0  0  0  0  0
   16.9322    0.1246   17.1885 C   0  0  0  0  0  0  0  0  0  0  0  0
   16.5009    1.5225   17.0050 C   0  0  0  0  0  0  0  0  0  0  0  0
   15.4948    1.9187   17.6012 O   0  0  0  0  0  0  0  0  0  0  0  0
   17.0989    2.4032   16.0909 N   0  0  0  0  0  0  0  0  0  0  0  0
   17.7976    1.9330   14.9943 C   0  0  0  0  0  0  0  0  0  0  0  0
   18.9579    1.5366   15.0226 O   0  0  0  0  0  0  0  0  0  0  0  0
   17.2599    2.4284   13.6901 C   0  0  0  0  0  0  0  0  0  0  0  0
   15.9797    2.3723   13.2965 C   0  0  0  0  0  0  0  0  0  0  0  0
   15.5518    3.1092   12.1282 C   0  0  0  0  0  0  0  0  0  0  0  0
   16.4221    3.8542   11.4407 C   0  0  0  0  0  0  0  0  0  0  0  0
   17.8282    3.8899   11.8912 C   0  0  0  0  0  0  0  0  0  0  0  0
   18.6591    4.5943   11.3412 O   0  0  0  0  0  0  0  0  0  0  0  0
   18.1529    3.1645   12.9773 N   0  0  0  0  0  0  0  0  0  0  0  0
   16.5277    3.7674   15.9142 C   0  0  1  0  0  0  0  0  0  0  0  0
   15.0225    3.8295   15.7487 C   0  0  0  0  0  0  0  0  0  0  0  0
   14.6381    5.0374   14.9315 C   0  0  0  0  0  0  0  0  0  0  0  0
   15.0824    6.2545   15.6839 C   0  0  0  0  0  0  0  0  0  0  0  0
   14.5372    7.3331   15.4802 O   0  0  0  0  0  0  0  0  0  0  0  0
   16.1359    6.0808   16.5727 N   0  0  0  0  0  0  0  0  0  0  0  0
   16.8753    4.9175   16.8374 C   0  0  0  0  0  0  0  0  0  0  0  0
   17.7964    4.8952   17.6397 O   0  0  0  0  0  0  0  0  0  0  0  0
  1  2  1  0
  2  3  2  0
  3  4  1  0
  4  5  1  0
  5  6  1  0
  5  7  2  0
  7  8  1  0
  8  9  2  0
  8 10  1  0
 10 11  1  0
 11 12  2  0
 11 13  1  0
 13 14  2  0
 14 15  1  0
 15 16  2  0
 16 17  1  0
 17 18  2  0
 17 19  1  0
 20 10  1  1
 20 21  1  0
 21 22  1  0
 22 23  1  0
 23 24  2  0
 23 25  1  0
 25 26  1  0
 26 27  2  0
  7  2  1  0
 19 13  1  0
 26 20  1  0
M  END
>  <HIPPO ID>  (469) 
117297

>  <alias>  (469) 
None

>  <ref_mols>  (469) 
c0732a,c1135a

>  <submitter_email>  (469) 
None

>  <ref_pdb>  (469) 
c0300a

>  <inchikey>  (469) 
HWSNKHLLEGQQFC-VIFPVBQESA-N

>  <generation_date>  (469) 
None

>  <original ID>  (469) 
HWSNKHLLEGQQFC-VIFPVBQESA-N

>  <tags>  (469) 
[]

>  <exports>  (469) 
nan

>  <method>  (469) 
None

>  <submitter_name>  (469) 
None

>  <original SMILES>  (469) 
Cc1n[nH]c(N)c1C(=O)N(C(=O)c1cccc(=O)[nH]1)[C@H]1CCC(=O)NC1=O

>  <ref_url>  (469) 
None

$$$$
